*SPEF "ieee 1481-1999"
*DESIGN "counter"
*DATE "12:05:24 Wednesday December 04, 2024"
*VENDOR "The OpenROAD Project"
*PROGRAM "OpenROAD"
*VERSION "b16bda7e82721d10566ff7e2b68f1ff0be9f9e38"
*DESIGN_FLOW "NAME_SCOPE LOCAL" "PIN_CAP NONE"
*DIVIDER /
*DELIMITER :
*BUS_DELIMITER []
*T_UNIT 1 NS
*C_UNIT 1 PF
*R_UNIT 1 OHM
*L_UNIT 1 HENRY

*NAME_MAP
*3 clk
*4 count[0]
*5 count[1]
*6 count[2]
*7 count[3]
*8 count[4]
*9 count[5]
*10 count[6]
*11 count[7]
*12 data[0]
*13 data[1]
*14 data[2]
*15 data[3]
*16 data[4]
*17 data[5]
*18 data[6]
*19 data[7]
*20 enable
*21 preload
*22 resetn
*23 up_down
*24 _000_
*25 _001_
*26 _002_
*27 _003_
*28 _004_
*29 _005_
*30 _006_
*31 _007_
*32 _008_
*33 _009_
*34 _010_
*35 _011_
*36 _012_
*37 _013_
*38 _014_
*39 _015_
*40 _016_
*41 _017_
*42 _018_
*43 _019_
*44 _020_
*45 _021_
*46 _022_
*47 _023_
*48 _024_
*49 _025_
*50 _026_
*51 _027_
*52 _028_
*53 _029_
*54 _030_
*55 _031_
*56 _032_
*57 _033_
*58 _034_
*59 _035_
*60 _036_
*61 _037_
*62 _038_
*63 _039_
*64 _040_
*65 _041_
*66 _042_
*67 _043_
*68 _044_
*69 _045_
*70 _046_
*71 _047_
*72 _048_
*73 _049_
*74 _050_
*75 _051_
*76 _052_
*77 _053_
*78 clknet_0_clk
*79 clknet_1_0__leaf_clk
*80 clknet_1_1__leaf_clk
*81 net1
*82 net10
*83 net11
*84 net12
*85 net13
*86 net14
*87 net15
*88 net16
*89 net17
*90 net18
*91 net19
*92 net2
*93 net20
*94 net21
*95 net22
*96 net23
*97 net24
*98 net25
*99 net26
*100 net27
*101 net28
*102 net3
*103 net33
*104 net34
*105 net4
*106 net5
*107 net6
*108 net7
*109 net8
*110 net9
*111 FILLER_0_0_15
*112 FILLER_0_0_27
*113 FILLER_0_0_3
*114 FILLER_0_0_55
*115 FILLER_0_0_64
*116 FILLER_0_10_14
*117 FILLER_0_10_22
*118 FILLER_0_10_29
*119 FILLER_0_10_33
*120 FILLER_0_10_44
*121 FILLER_0_10_54
*122 FILLER_0_10_6
*123 FILLER_0_10_66
*124 FILLER_0_11_14
*125 FILLER_0_11_23
*126 FILLER_0_11_31
*127 FILLER_0_11_57
*128 FILLER_0_11_69
*129 FILLER_0_11_77
*130 FILLER_0_12_15
*131 FILLER_0_12_27
*132 FILLER_0_12_29
*133 FILLER_0_12_3
*134 FILLER_0_12_35
*135 FILLER_0_12_55
*136 FILLER_0_12_57
*137 FILLER_0_12_69
*138 FILLER_0_12_77
*139 FILLER_0_1_44
*140 FILLER_0_1_55
*141 FILLER_0_1_57
*142 FILLER_0_2_15
*143 FILLER_0_2_24
*144 FILLER_0_2_42
*145 FILLER_0_2_46
*146 FILLER_0_2_7
*147 FILLER_0_2_73
*148 FILLER_0_3_3
*149 FILLER_0_3_35
*150 FILLER_0_3_61
*151 FILLER_0_3_76
*152 FILLER_0_4_18
*153 FILLER_0_4_3
*154 FILLER_0_4_50
*155 FILLER_0_4_56
*156 FILLER_0_5_17
*157 FILLER_0_5_28
*158 FILLER_0_5_34
*159 FILLER_0_5_71
*160 FILLER_0_6_22
*161 FILLER_0_6_29
*162 FILLER_0_6_63
*163 FILLER_0_7_10
*164 FILLER_0_7_14
*165 FILLER_0_7_35
*166 FILLER_0_7_46
*167 FILLER_0_7_55
*168 FILLER_0_7_57
*169 FILLER_0_7_69
*170 FILLER_0_7_73
*171 FILLER_0_8_10
*172 FILLER_0_8_18
*173 FILLER_0_8_26
*174 FILLER_0_8_6
*175 FILLER_0_9_23
*176 FILLER_0_9_29
*177 FILLER_0_9_50
*178 FILLER_0_9_57
*179 PHY_EDGE_ROW_0_Left_13
*180 PHY_EDGE_ROW_0_Right_0
*181 PHY_EDGE_ROW_10_Left_23
*182 PHY_EDGE_ROW_10_Right_10
*183 PHY_EDGE_ROW_11_Left_24
*184 PHY_EDGE_ROW_11_Right_11
*185 PHY_EDGE_ROW_12_Left_25
*186 PHY_EDGE_ROW_12_Right_12
*187 PHY_EDGE_ROW_1_Left_14
*188 PHY_EDGE_ROW_1_Right_1
*189 PHY_EDGE_ROW_2_Left_15
*190 PHY_EDGE_ROW_2_Right_2
*191 PHY_EDGE_ROW_3_Left_16
*192 PHY_EDGE_ROW_3_Right_3
*193 PHY_EDGE_ROW_4_Left_17
*194 PHY_EDGE_ROW_4_Right_4
*195 PHY_EDGE_ROW_5_Left_18
*196 PHY_EDGE_ROW_5_Right_5
*197 PHY_EDGE_ROW_6_Left_19
*198 PHY_EDGE_ROW_6_Right_6
*199 PHY_EDGE_ROW_7_Left_20
*200 PHY_EDGE_ROW_7_Right_7
*201 PHY_EDGE_ROW_8_Left_21
*202 PHY_EDGE_ROW_8_Right_8
*203 PHY_EDGE_ROW_9_Left_22
*204 PHY_EDGE_ROW_9_Right_9
*205 TAP_TAPCELL_ROW_0_26
*206 TAP_TAPCELL_ROW_0_27
*207 TAP_TAPCELL_ROW_10_37
*208 TAP_TAPCELL_ROW_11_38
*209 TAP_TAPCELL_ROW_12_39
*210 TAP_TAPCELL_ROW_12_40
*211 TAP_TAPCELL_ROW_1_28
*212 TAP_TAPCELL_ROW_2_29
*213 TAP_TAPCELL_ROW_3_30
*214 TAP_TAPCELL_ROW_4_31
*215 TAP_TAPCELL_ROW_5_32
*216 TAP_TAPCELL_ROW_6_33
*217 TAP_TAPCELL_ROW_7_34
*218 TAP_TAPCELL_ROW_8_35
*219 TAP_TAPCELL_ROW_9_36
*220 _054_
*221 _055_
*222 _056_
*223 _057_
*224 _058_
*225 _059_
*226 _060_
*227 _061_
*228 _062_
*229 _063_
*230 _064_
*231 _065_
*232 _066_
*233 _067_
*234 _068_
*235 _069_
*236 _070_
*237 _071_
*238 _072_
*239 _073_
*240 _074_
*241 _075_
*242 _076_
*243 _077_
*244 _078_
*245 _079_
*246 _080_
*247 _081_
*248 _082_
*249 _083_
*250 _084_
*251 _085_
*252 _086_
*253 _087_
*254 _088_
*255 _089_
*256 _090_
*257 _091_
*258 _092_
*259 _093_
*260 _094_
*261 _095_
*262 _096_
*263 _097_
*264 _098_
*265 _099_
*266 _100_
*267 _101_
*268 _102_
*269 _103_
*270 _104_
*271 _105_
*272 _106_
*273 _107_
*274 _108_
*275 _109_
*276 _110_
*277 _111_
*278 _112_
*279 _113_
*280 _114_
*281 _115_
*282 clkbuf_0_clk
*283 clkbuf_1_0__f_clk
*284 clkbuf_1_1__f_clk
*285 clkload0
*286 fanout21
*287 hold12
*288 hold13
*289 input1
*290 input10
*291 input11
*292 input12
*293 input2
*294 input3
*295 input4
*296 input5
*297 input6
*298 input7
*299 input8
*300 input9
*301 output13
*302 output14
*303 output15
*304 output16
*305 output17
*306 output18
*307 output19
*308 output20
*309 rebuffer1
*310 rebuffer2
*311 rebuffer3
*312 rebuffer4
*313 rebuffer5
*314 rebuffer6
*315 rebuffer7

*PORTS
clk I
count[0] O
count[1] O
count[2] O
count[3] O
count[4] O
count[5] O
count[6] O
count[7] O
data[0] I
data[1] I
data[2] I
data[3] I
data[4] I
data[5] I
data[6] I
data[7] I
enable I
preload I
resetn I
up_down I

*D_NET *3 0.00459143
*CONN
*P clk I
*I *282:A I *D sky130_fd_sc_hd__clkbuf_16
*CAP
1 clk 0.00220773
2 *282:A 0
3 *3:13 0.00220773
4 *3:13 count[2] 1.5289e-05
5 *3:13 count[3] 0
6 *3:13 *249:B 5.02335e-05
7 *3:13 *6:14 1.59585e-05
8 *3:13 *21:15 4.40799e-05
9 *3:13 *49:10 0
10 *3:13 *54:18 0
11 *3:13 *55:26 0
12 *3:13 *56:12 0
13 *3:13 *57:18 2.7954e-05
14 *3:13 *59:12 2.24608e-05
15 *3:13 *96:10 0
*RES
1 clk *3:13 35.1007 
2 *3:13 *282:A 23 
*END

*D_NET *4 0.00133845
*CONN
*P count[0] O
*I *301:X O *D sky130_fd_sc_hd__buf_2
*CAP
1 count[0] 0.000563313
2 *301:X 0.000563313
3 count[0] *22:11 0.000103852
4 count[0] *33:8 7.20089e-05
5 count[0] *82:64 3.59619e-05
*RES
1 *301:X count[0] 48.556 
*END

*D_NET *5 0.00244558
*CONN
*P count[1] O
*I *302:X O *D sky130_fd_sc_hd__buf_2
*CAP
1 count[1] 0.000458311
2 *302:X 0.000328268
3 *5:8 0.000786579
4 count[1] *230:B1 4.80465e-05
5 count[1] *13:15 0
6 count[1] *40:10 8.29151e-05
7 *5:8 *230:B1 6.17437e-06
8 *5:8 *231:A2 2.32101e-05
9 *5:8 *232:A1 1.21972e-05
10 *5:8 *302:A 0.000139357
11 *5:8 *13:15 0.000188927
12 *5:8 *42:10 0.000311534
13 *5:8 *82:45 6.00655e-05
*RES
1 *302:X *5:8 45.7679 
2 *5:8 count[1] 9.40429 
*END

*D_NET *6 0.000676914
*CONN
*P count[2] O
*I *303:X O *D sky130_fd_sc_hd__buf_2
*CAP
1 count[2] 8.68308e-05
2 *303:X 0.000236002
3 *6:14 0.000322833
4 *3:13 count[2] 1.5289e-05
5 *3:13 *6:14 1.59585e-05
*RES
1 *303:X *6:14 49.9 
2 *6:14 count[2] 0.382667 
*END

*D_NET *7 0.000862945
*CONN
*P count[3] O
*I *304:X O *D sky130_fd_sc_hd__buf_2
*CAP
1 count[3] 0.000348979
2 *304:X 0.000348979
3 count[3] *239:A 2.36993e-05
4 count[3] *286:A 6.46393e-05
5 count[3] *15:15 3.49463e-05
6 count[3] *21:15 4.17018e-05
7 *3:13 count[3] 0
*RES
1 *304:X count[3] 49.9819 
*END

*D_NET *8 0.000475578
*CONN
*P count[4] O
*I *305:X O *D sky130_fd_sc_hd__buf_2
*CAP
1 count[4] 0.000170802
2 *305:X 0.000170802
3 count[4] count[5] 0
4 count[4] *296:A 0
5 count[4] *297:A 7.1481e-05
6 count[4] *300:A 6.2493e-05
7 count[4] *305:A 0
*RES
1 *305:X count[4] 47.0789 
*END

*D_NET *9 0.000574417
*CONN
*P count[5] O
*I *306:X O *D sky130_fd_sc_hd__buf_2
*CAP
1 count[5] 0.000234673
2 *306:X 0.000234673
3 count[5] *297:A 6.91091e-05
4 count[5] *306:A 3.59619e-05
5 count[4] count[5] 0
*RES
1 *306:X count[5] 47.7832 
*END

*D_NET *10 0.00183534
*CONN
*P count[6] O
*I *307:X O *D sky130_fd_sc_hd__clkbuf_4
*CAP
1 count[6] 0.000370991
2 *307:X 0.00044572
3 *10:12 0.00081671
4 count[6] *18:11 0
5 *10:12 *18:11 0.000103583
6 *10:12 *70:31 9.83317e-05
*RES
1 *307:X *10:12 45.2604 
2 *10:12 count[6] 8.52393 
*END

*D_NET *11 0.000587307
*CONN
*P count[7] O
*I *308:X O *D sky130_fd_sc_hd__buf_2
*CAP
1 count[7] 0.000272299
2 *308:X 0.000272299
3 count[7] *19:17 2.79122e-05
4 count[7] *84:23 1.4796e-05
*RES
1 *308:X count[7] 47.5169 
*END

*D_NET *12 0.00295666
*CONN
*P data[0] I
*I *289:A I *D sky130_fd_sc_hd__clkbuf_1
*CAP
1 data[0] 0.00103658
2 *289:A 0
3 *12:15 0.00103658
4 *12:15 *225:B2 0
5 *12:15 *274:CLK 0.000166513
6 *12:15 *278:CLK 0.000161121
7 *12:15 *24:10 0.00015964
8 *12:15 *36:32 1.10968e-05
9 *12:15 *37:8 8.15327e-05
10 *12:15 *79:10 0.000118174
11 *12:15 *82:64 0
12 *12:15 *99:10 0
13 *12:15 *104:8 0.000185428
*RES
1 data[0] *12:15 36.4186 
2 *12:15 *289:A 23 
*END

*D_NET *13 0.00149406
*CONN
*P data[1] I
*I *293:A I *D sky130_fd_sc_hd__clkbuf_1
*CAP
1 data[1] 0.00056741
2 *293:A 0
3 *13:15 0.00056741
4 *13:15 *231:A2 0.000105541
5 *13:15 *302:A 1.74874e-06
6 *13:15 *40:10 0
7 *13:15 *82:30 6.30204e-05
8 *13:15 *99:10 0
9 count[1] *13:15 0
10 *5:8 *13:15 0.000188927
*RES
1 data[1] *13:15 27.3664 
2 *13:15 *293:A 23 
*END

*D_NET *14 0.00124517
*CONN
*P data[2] I
*I *294:A I *D sky130_fd_sc_hd__clkbuf_1
*CAP
1 data[2] 0.000562734
2 *294:A 0.000562734
3 *294:A *237:A2 6.09174e-05
4 *294:A *42:10 0
5 *294:A *47:10 6.17437e-06
6 *294:A *82:20 0
7 *294:A *82:30 5.26101e-05
*RES
1 data[2] *294:A 49.1236 
*END

*D_NET *15 0.000831182
*CONN
*P data[3] I
*I *295:A I *D sky130_fd_sc_hd__clkbuf_1
*CAP
1 data[3] 0.00034253
2 *295:A 0
3 *15:15 0.00034253
4 *15:15 *292:A 3.12475e-05
5 *15:15 *304:A 7.99287e-05
6 count[3] *15:15 3.49463e-05
*RES
1 data[3] *15:15 28.5796 
2 *15:15 *295:A 23 
*END

*D_NET *16 0.000834167
*CONN
*P data[4] I
*I *296:A I *D sky130_fd_sc_hd__clkbuf_1
*CAP
1 data[4] 0.000340157
2 *296:A 0.000340157
3 *296:A *300:A 7.56969e-05
4 *296:A *22:11 0
5 *296:A *89:10 7.3525e-05
6 *296:A *89:21 4.6318e-06
7 count[4] *296:A 0
*RES
1 data[4] *296:A 49.0114 
*END

*D_NET *17 0.000451866
*CONN
*P data[5] I
*I *297:A I *D sky130_fd_sc_hd__clkbuf_1
*CAP
1 data[5] 0.000155638
2 *297:A 0.000155638
3 *297:A *258:A1 0
4 count[4] *297:A 7.1481e-05
5 count[5] *297:A 6.91091e-05
*RES
1 data[5] *297:A 47.3452 
*END

*D_NET *18 0.00181184
*CONN
*P data[6] I
*I *298:A I *D sky130_fd_sc_hd__clkbuf_1
*CAP
1 data[6] 0.000713556
2 *298:A 0
3 *18:11 0.000713556
4 *18:11 *70:23 0.000186051
5 *18:11 *70:31 5.79559e-05
6 *18:11 *108:8 3.71369e-05
7 count[6] *18:11 0
8 *10:12 *18:11 0.000103583
*RES
1 data[6] *18:11 31.2193 
2 *18:11 *298:A 23 
*END

*D_NET *19 0.000691952
*CONN
*P data[7] I
*I *299:A I *D sky130_fd_sc_hd__clkbuf_1
*CAP
1 data[7] 0.000321397
2 *299:A 0
3 *19:17 0.000321397
4 *19:17 *292:A 2.12457e-05
5 *19:17 *84:23 0
6 count[7] *19:17 2.79122e-05
*RES
1 data[7] *19:17 27.5105 
2 *19:17 *299:A 23 
*END

*D_NET *20 0.000595586
*CONN
*P enable I
*I *300:A I *D sky130_fd_sc_hd__clkbuf_1
*CAP
1 enable 0.000210717
2 *300:A 0.000210717
3 *300:A *89:21 0
4 *300:A *110:8 3.59619e-05
5 count[4] *300:A 6.2493e-05
6 *296:A *300:A 7.56969e-05
*RES
1 enable *300:A 48.4016 
*END

*D_NET *21 0.00106045
*CONN
*P preload I
*I *290:A I *D sky130_fd_sc_hd__buf_2
*CAP
1 preload 0.000487333
2 *290:A 0
3 *21:15 0.000487333
4 *21:15 *239:A 0
5 *21:15 *94:10 0
6 count[3] *21:15 4.17018e-05
7 *3:13 *21:15 4.40799e-05
*RES
1 preload *21:15 30.5505 
2 *21:15 *290:A 23 
*END

*D_NET *22 0.00146391
*CONN
*P resetn I
*I *287:A I *D sky130_fd_sc_hd__dlygate4sd3_1
*CAP
1 resetn 0.000580353
2 *287:A 0
3 *22:11 0.000580353
4 *22:11 *301:A 6.53562e-05
5 *22:11 *85:19 0.000133999
6 *22:11 *103:8 0
7 count[0] *22:11 0.000103852
8 *296:A *22:11 0
*RES
1 resetn *22:11 29.4383 
2 *22:11 *287:A 23 
*END

*D_NET *23 0.00062868
*CONN
*P up_down I
*I *292:A I *D sky130_fd_sc_hd__buf_1
*CAP
1 up_down 0.000288093
2 *292:A 0.000288093
3 *15:15 *292:A 3.12475e-05
4 *19:17 *292:A 2.12457e-05
*RES
1 up_down *292:A 49.8062 
*END

*D_NET *24 0.00110044
*CONN
*I *274:D I *D sky130_fd_sc_hd__dfrtp_1
*I *226:Y O *D sky130_fd_sc_hd__a21oi_1
*CAP
1 *274:D 0
2 *226:Y 0.000301321
3 *24:10 0.000301321
4 *24:10 *225:B2 1.83564e-05
5 *24:10 *233:A2 0.000178517
6 *24:10 *32:23 0.000141284
7 *12:15 *24:10 0.00015964
*RES
1 *226:Y *24:10 44.4214 
2 *24:10 *274:D 38 
*END

*D_NET *25 0.000392101
*CONN
*I *275:D I *D sky130_fd_sc_hd__dfrtp_1
*I *232:X O *D sky130_fd_sc_hd__a21o_1
*CAP
1 *275:D 0
2 *232:X 0.000196051
3 *25:10 0.000196051
4 *25:10 *47:10 0
*RES
1 *232:X *25:10 41.0036 
2 *25:10 *275:D 38 
*END

*D_NET *26 0.000629099
*CONN
*I *276:D I *D sky130_fd_sc_hd__dfrtp_2
*I *238:X O *D sky130_fd_sc_hd__a31o_1
*CAP
1 *276:D 0
2 *238:X 0.000201781
3 *26:10 0.000201781
4 *26:10 *238:A2 3.7122e-06
5 *26:10 *36:38 0.000110913
6 *26:10 *82:20 0.000110913
*RES
1 *238:X *26:10 41.1279 
2 *26:10 *276:D 38 
*END

*D_NET *27 0.00176079
*CONN
*I *277:D I *D sky130_fd_sc_hd__dfrtp_1
*I *244:X O *D sky130_fd_sc_hd__a221o_1
*CAP
1 *277:D 0.000390161
2 *244:X 7.79804e-05
3 *27:8 0.000468141
4 *277:D *277:CLK 5.70419e-05
5 *277:D *277:RESET_B 4.57412e-05
6 *277:D *304:A 0.0002246
7 *277:D *83:62 0.000144231
8 *277:D *88:21 2.02872e-05
9 *277:D *88:53 0.000195293
10 *27:8 *272:A1 2.2781e-05
11 *27:8 *83:62 2.60152e-05
12 *27:8 *105:8 8.85189e-05
*RES
1 *244:X *27:8 39.9057 
2 *27:8 *277:D 48.15 
*END

*D_NET *28 0.000730142
*CONN
*I *278:D I *D sky130_fd_sc_hd__dfrtp_1
*I *253:X O *D sky130_fd_sc_hd__a31o_1
*CAP
1 *278:D 0
2 *253:X 0.00022316
3 *28:10 0.00022316
4 *28:10 *253:A2 0.000141954
5 *28:10 *36:18 0.000141869
6 *28:10 *82:64 0
*RES
1 *253:X *28:10 41.9564 
2 *28:10 *278:D 38 
*END

*D_NET *29 0.000251872
*CONN
*I *279:D I *D sky130_fd_sc_hd__dfrtp_1
*I *259:X O *D sky130_fd_sc_hd__a31o_1
*CAP
1 *279:D 0
2 *259:X 8.43236e-05
3 *29:8 8.43236e-05
4 *29:8 *279:RESET_B 0
5 *29:8 *63:10 4.08537e-05
6 *29:8 *94:83 4.23714e-05
*RES
1 *259:X *29:8 39.9057 
2 *29:8 *279:D 38 
*END

*D_NET *30 0.000942954
*CONN
*I *280:D I *D sky130_fd_sc_hd__dfrtp_1
*I *268:X O *D sky130_fd_sc_hd__a31o_1
*CAP
1 *280:D 1.59856e-05
2 *268:X 0.000405781
3 *30:10 0.000421767
4 *280:D *83:50 4.82584e-06
5 *30:10 *265:B 3.22051e-05
6 *30:10 *268:A2 1.59071e-05
7 *30:10 *68:31 1.08287e-05
8 *30:10 *80:19 3.56537e-05
*RES
1 *268:X *30:10 44.5457 
2 *30:10 *280:D 38.2123 
*END

*D_NET *31 0.000553991
*CONN
*I *281:D I *D sky130_fd_sc_hd__dfrtp_1
*I *273:X O *D sky130_fd_sc_hd__a21o_1
*CAP
1 *281:D 0
2 *273:X 0.000186051
3 *31:10 0.000186051
4 *31:10 *36:62 6.78147e-05
5 *31:10 *77:10 0.000114074
*RES
1 *273:X *31:10 41.1279 
2 *31:10 *281:D 38 
*END

*D_NET *32 0.00545249
*CONN
*I *229:A I *D sky130_fd_sc_hd__nand2_1
*I *230:A1 I *D sky130_fd_sc_hd__o21a_1
*I *225:B2 I *D sky130_fd_sc_hd__a22o_1
*I *233:A2 I *D sky130_fd_sc_hd__o21a_1
*I *220:Y O *D sky130_fd_sc_hd__inv_2
*CAP
1 *229:A 0
2 *230:A1 0
3 *225:B2 0.000156089
4 *233:A2 0.000199357
5 *220:Y 7.59234e-05
6 *32:52 0.000285252
7 *32:40 0.00101688
8 *32:23 0.00103253
9 *32:12 0.000560412
10 *32:8 0.000292157
11 *225:B2 *82:64 0.000155417
12 *233:A2 *233:A1 5.67058e-05
13 *233:A2 *36:32 5.52339e-05
14 *233:A2 *104:8 0.000183733
15 *32:8 *288:A 5.56203e-05
16 *32:12 *288:A 9.67842e-05
17 *32:12 *104:8 0.000223698
18 *32:23 *82:64 0.00016419
19 *32:40 *39:26 7.28769e-05
20 *32:40 *86:10 7.51453e-06
21 *32:40 *99:10 1.55671e-05
22 *32:52 *302:A 0
23 *32:52 *39:26 0.000351493
24 *32:52 *86:10 5.68958e-05
25 *12:15 *225:B2 0
26 *24:10 *225:B2 1.83564e-05
27 *24:10 *233:A2 0.000178517
28 *24:10 *32:23 0.000141284
*RES
1 *220:Y *32:8 39.5536 
2 *32:8 *32:12 18.9564 
3 *32:12 *233:A2 27.4329 
4 *32:12 *32:23 19.3707 
5 *32:23 *225:B2 42.0186 
6 *32:23 *32:40 24.715 
7 *32:40 *32:52 35.7793 
8 *32:52 *230:A1 23 
9 *32:40 *229:A 23 
*END

*D_NET *33 0.001449
*CONN
*I *225:A2 I *D sky130_fd_sc_hd__a22o_1
*I *221:Y O *D sky130_fd_sc_hd__inv_2
*CAP
1 *225:A2 0.00024098
2 *221:Y 0.000120312
3 *33:8 0.000361292
4 *225:A2 *82:45 2.18506e-05
5 *225:A2 *82:64 0.000161003
6 *33:8 *274:RESET_B 5.80963e-05
7 *33:8 *301:A 0.000138181
8 *33:8 *82:64 5.98606e-05
9 *33:8 *85:19 0.000215414
10 count[0] *33:8 7.20089e-05
*RES
1 *221:Y *33:8 42.7229 
2 *33:8 *225:A2 42.93 
*END

*D_NET *34 0.000615968
*CONN
*I *241:A2 I *D sky130_fd_sc_hd__o21ai_2
*I *222:Y O *D sky130_fd_sc_hd__inv_2
*CAP
1 *241:A2 0
2 *222:Y 0.000214503
3 *34:10 0.000214503
4 *34:10 *50:10 0.000112535
5 *34:10 *83:62 0
6 *34:10 *87:47 7.44257e-05
*RES
1 *222:Y *34:10 41.48 
2 *34:10 *241:A2 38 
*END

*D_NET *35 0.0169262
*CONN
*I *258:B1 I *D sky130_fd_sc_hd__a22o_1
*I *244:B1 I *D sky130_fd_sc_hd__a221o_1
*I *237:B1 I *D sky130_fd_sc_hd__a22o_1
*I *231:B1 I *D sky130_fd_sc_hd__a22o_1
*I *225:B1 I *D sky130_fd_sc_hd__a22o_1
*I *272:B1 I *D sky130_fd_sc_hd__a22o_1
*I *267:B1 I *D sky130_fd_sc_hd__a22o_1
*I *252:B1 I *D sky130_fd_sc_hd__a22o_1
*I *223:Y O *D sky130_fd_sc_hd__nor2_2
*CAP
1 *258:B1 0.000148112
2 *244:B1 2.32701e-05
3 *237:B1 4.70839e-05
4 *231:B1 0
5 *225:B1 0.000412024
6 *272:B1 0.000126151
7 *267:B1 0
8 *252:B1 0.000174134
9 *223:Y 0.000114267
10 *35:75 0.000412024
11 *35:73 0.00110579
12 *35:63 0.00202436
13 *35:57 0.00111055
14 *35:44 0.00129867
15 *35:27 0.00151416
16 *35:21 0.000782564
17 *35:8 0.000365422
18 *225:B1 *231:A2 0
19 *225:B1 *82:45 0.00053353
20 *225:B1 *82:64 7.53081e-05
21 *244:B1 *239:B 5.3304e-05
22 *244:B1 *243:A1 5.3304e-05
23 *252:B1 *252:A2 1.72202e-05
24 *252:B1 *252:B2 5.67058e-05
25 *252:B1 *82:79 0.000137672
26 *252:B1 *82:97 2.96154e-05
27 *252:B1 *89:21 0.000216721
28 *258:B1 *258:A1 0.000110024
29 *258:B1 *305:A 6.48142e-05
30 *35:8 *224:B 0.000182826
31 *35:8 *89:27 5.3304e-05
32 *35:21 *258:A1 1.58805e-05
33 *35:21 *305:A 0.000101708
34 *35:21 *82:97 4.60263e-05
35 *35:21 *89:21 3.47781e-05
36 *35:27 *263:A1 0.000351508
37 *35:27 *82:105 0.00116568
38 *35:27 *108:16 8.47771e-05
39 *35:44 *277:CLK 0.000127793
40 *35:44 *83:50 0.000700222
41 *35:44 *108:16 5.47983e-06
42 *35:57 *243:A2 0.000104869
43 *35:57 *272:A1 0.000253569
44 *35:57 *36:62 0
45 *35:57 *51:10 2.76611e-06
46 *35:57 *83:54 0.000111852
47 *35:57 *88:29 0.000164282
48 *35:63 *243:A2 0.000148803
49 *35:63 *36:62 0
50 *35:63 *46:19 0.000217473
51 *35:63 *50:10 0
52 *35:63 *51:10 3.21223e-05
53 *35:63 *82:20 0.000650318
54 *35:63 *83:62 0
55 *35:73 *82:20 1.01436e-05
56 *35:73 *82:30 0.00135319
*RES
1 *223:Y *35:8 40.5271 
2 *35:8 *252:B1 42.5364 
3 *35:8 *35:21 1.90571 
4 *35:21 *35:27 30.6393 
5 *35:27 *267:B1 23 
6 *35:27 *35:44 44.3757 
7 *35:44 *272:B1 24.595 
8 *35:44 *35:57 20.4271 
9 *35:57 *35:63 18.415 
10 *35:63 *35:73 47.8971 
11 *35:73 *35:75 15 
12 *35:75 *225:B1 30.3329 
13 *35:75 *231:B1 23 
14 *35:63 *237:B1 38.6214 
15 *35:57 *244:B1 38.6214 
16 *35:21 *258:B1 41.5836 
*END

*D_NET *36 0.0141525
*CONN
*I *259:A1 I *D sky130_fd_sc_hd__a31o_1
*I *253:A1 I *D sky130_fd_sc_hd__a31o_1
*I *226:A2 I *D sky130_fd_sc_hd__a21oi_1
*I *230:B1 I *D sky130_fd_sc_hd__o21a_1
*I *273:A1 I *D sky130_fd_sc_hd__a21o_1
*I *268:A1 I *D sky130_fd_sc_hd__a31o_1
*I *242:B1 I *D sky130_fd_sc_hd__o21ai_1
*I *238:A1 I *D sky130_fd_sc_hd__a31o_1
*I *224:X O *D sky130_fd_sc_hd__and2b_2
*CAP
1 *259:A1 0.000402502
2 *253:A1 0
3 *226:A2 1.84723e-05
4 *230:B1 6.36957e-05
5 *273:A1 8.54106e-06
6 *268:A1 0
7 *242:B1 0.000120058
8 *238:A1 0
9 *224:X 0.000222091
10 *36:72 0.000802743
11 *36:62 0.00161588
12 *36:47 0.00116845
13 *36:38 0.000921781
14 *36:32 0.00218611
15 *36:18 0.00174799
16 *36:10 0.000410623
17 *36:8 0.000750128
18 *226:A2 *104:8 9.95589e-06
19 *230:B1 *232:A1 5.56279e-05
20 *230:B1 *42:10 1.21972e-05
21 *242:B1 *240:A 0.000223692
22 *259:A1 *257:A 0
23 *259:A1 *259:A2 2.4754e-05
24 *259:A1 *259:A3 9.84851e-05
25 *259:A1 *259:B1 1.37232e-05
26 *259:A1 *279:RESET_B 0
27 *259:A1 *62:10 0
28 *259:A1 *90:22 1.32939e-05
29 *259:A1 *94:83 0.000140944
30 *273:A1 *76:8 1.05441e-05
31 *273:A1 *77:10 7.37814e-06
32 *36:8 *247:A_N 5.50106e-05
33 *36:8 *89:27 2.35238e-05
34 *36:10 *248:A_N 0
35 *36:10 *253:A3 1.05658e-05
36 *36:10 *279:RESET_B 0
37 *36:10 *55:8 0
38 *36:10 *82:64 0
39 *36:18 *248:A_N 0
40 *36:18 *250:A 0
41 *36:18 *264:A1 0
42 *36:18 *278:CLK 7.28526e-05
43 *36:18 *58:10 0
44 *36:18 *82:64 0
45 *36:32 *302:A 0
46 *36:32 *37:8 0.000592312
47 *36:32 *38:18 0
48 *36:32 *78:12 0
49 *36:32 *98:10 0
50 *36:32 *99:10 0
51 *36:32 *104:8 4.07999e-05
52 *36:38 *47:10 0.000357
53 *36:38 *82:20 0.000158803
54 *36:47 *235:B 0.000168408
55 *36:47 *245:B1_N 0
56 *36:47 *246:A2 0.000126705
57 *36:47 *44:25 4.99647e-05
58 *36:47 *47:10 1.14452e-05
59 *36:47 *82:20 0.000625802
60 *36:47 *88:53 7.41334e-05
61 *36:62 *277:CLK 0
62 *36:62 *281:RESET_B 0
63 *36:62 *51:10 3.21327e-05
64 *36:62 *77:10 8.32669e-05
65 *36:62 *80:19 0
66 *36:62 *82:20 4.92689e-05
67 *36:62 *83:54 0
68 *36:62 *88:29 0
69 *36:62 *88:53 0.000121482
70 *36:72 *91:21 8.21456e-06
71 count[1] *230:B1 4.80465e-05
72 *233:A2 *36:32 5.52339e-05
73 *5:8 *230:B1 6.17437e-06
74 *12:15 *36:32 1.10968e-05
75 *26:10 *36:38 0.000110913
76 *28:10 *36:18 0.000141869
77 *31:10 *36:62 6.78147e-05
78 *35:57 *36:62 0
79 *35:63 *36:62 0
*RES
1 *224:X *36:8 41.0036 
2 *36:8 *36:10 2.25786 
3 *36:10 *36:18 20.8414 
4 *36:18 *36:32 35.8865 
5 *36:32 *36:38 14.5951 
6 *36:38 *238:A1 38 
7 *36:38 *36:47 8.59643 
8 *36:47 *242:B1 40.5271 
9 *36:47 *36:62 14.8211 
10 *36:62 *36:72 33.1803 
11 *36:72 *268:A1 23 
12 *36:62 *273:A1 38.3211 
13 *36:32 *230:B1 47.2946 
14 *36:18 *226:A2 23.4971 
15 *36:10 *253:A1 38 
16 *36:8 *259:A1 46.6793 
*END

*D_NET *37 0.00153264
*CONN
*I *226:B1 I *D sky130_fd_sc_hd__a21oi_1
*I *225:X O *D sky130_fd_sc_hd__a22o_1
*CAP
1 *226:B1 0
2 *225:X 0.000201618
3 *37:8 0.000201618
4 *37:8 *274:CLK 0.000166513
5 *37:8 *278:CLK 0.000178782
6 *37:8 *78:12 0
7 *37:8 *79:10 0.000110262
8 *12:15 *37:8 8.15327e-05
9 *36:32 *37:8 0.000592312
*RES
1 *225:X *37:8 46.2443 
2 *37:8 *226:B1 38 
*END

*D_NET *38 0.00228014
*CONN
*I *233:B1 I *D sky130_fd_sc_hd__o21a_1
*I *227:Y O *D sky130_fd_sc_hd__nand2b_1
*CAP
1 *233:B1 0
2 *227:Y 0.000717389
3 *38:18 0.000717389
4 *38:18 *227:A_N 0
5 *38:18 *233:A1 0.000180191
6 *38:18 *39:12 9.84851e-05
7 *38:18 *86:27 0.000144494
8 *38:18 *94:45 2.0856e-05
9 *38:18 *94:58 4.67418e-05
10 *38:18 *97:10 9.84851e-05
11 *38:18 *101:8 0.000256107
12 *38:18 *104:8 0
13 *36:32 *38:18 0
*RES
1 *227:Y *38:18 37.6864 
2 *38:18 *233:B1 23 
*END

*D_NET *39 0.00300813
*CONN
*I *233:A1 I *D sky130_fd_sc_hd__o21a_1
*I *229:B I *D sky130_fd_sc_hd__nand2_1
*I *230:A2 I *D sky130_fd_sc_hd__o21a_1
*I *228:X O *D sky130_fd_sc_hd__xor2_1
*CAP
1 *233:A1 0.000198434
2 *229:B 0
3 *230:A2 0
4 *228:X 0
5 *39:26 0.000237177
6 *39:12 0.000572446
7 *39:4 0.000533704
8 *233:A1 *104:8 0
9 *39:12 *302:A 1.14452e-05
10 *39:12 *78:12 0
11 *39:12 *86:10 6.97718e-05
12 *39:12 *86:27 6.25525e-05
13 *39:12 *98:10 0.000127263
14 *39:26 *40:10 0.000435582
15 *233:A2 *233:A1 5.67058e-05
16 *32:40 *39:26 7.28769e-05
17 *32:52 *39:26 0.000351493
18 *38:18 *233:A1 0.000180191
19 *38:18 *39:12 9.84851e-05
*RES
1 *228:X *39:4 23 
2 *39:4 *39:12 35.8207 
3 *39:12 *39:26 37.3536 
4 *39:26 *230:A2 23 
5 *39:12 *229:B 23 
6 *39:4 *233:A1 26.9979 
*END

*D_NET *40 0.00165578
*CONN
*I *232:A1 I *D sky130_fd_sc_hd__a21o_1
*I *229:Y O *D sky130_fd_sc_hd__nand2_1
*CAP
1 *232:A1 0.000130528
2 *229:Y 0.00036093
3 *40:10 0.000491458
4 *232:A1 *232:A2 5.79559e-05
5 *232:A1 *42:10 2.85891e-05
6 count[1] *40:10 8.29151e-05
7 *230:B1 *232:A1 5.56279e-05
8 *5:8 *232:A1 1.21972e-05
9 *13:15 *40:10 0
10 *39:26 *40:10 0.000435582
*RES
1 *229:Y *40:10 44.9186 
2 *40:10 *232:A1 40.5271 
*END

*D_NET *41 0.000101316
*CONN
*I *232:A2 I *D sky130_fd_sc_hd__a21o_1
*I *230:X O *D sky130_fd_sc_hd__o21a_1
*CAP
1 *232:A2 1.13059e-05
2 *230:X 1.13059e-05
3 *232:A2 *42:10 2.07484e-05
4 *232:A1 *232:A2 5.79559e-05
*RES
1 *230:X *232:A2 46.6214 
*END

*D_NET *42 0.00134529
*CONN
*I *232:B1 I *D sky130_fd_sc_hd__a21o_1
*I *231:X O *D sky130_fd_sc_hd__a22o_1
*CAP
1 *232:B1 0
2 *231:X 0.00048611
3 *42:10 0.00048611
4 *230:B1 *42:10 1.21972e-05
5 *232:A1 *42:10 2.85891e-05
6 *232:A2 *42:10 2.07484e-05
7 *294:A *42:10 0
8 *5:8 *42:10 0.000311534
*RES
1 *231:X *42:10 30.685 
2 *42:10 *232:B1 23 
*END

*D_NET *43 0.00117314
*CONN
*I *246:A3 I *D sky130_fd_sc_hd__o31ai_4
*I *310:A I *D sky130_fd_sc_hd__buf_2
*I *233:X O *D sky130_fd_sc_hd__o21a_1
*CAP
1 *246:A3 0.000165569
2 *310:A 0
3 *233:X 4.99927e-05
4 *43:12 0.000207427
5 *43:8 9.1851e-05
6 *246:A3 *53:8 3.94445e-05
7 *246:A3 *54:40 4.6595e-05
8 *246:A3 *96:10 0.000278535
9 *43:8 *78:12 0.000141879
10 *43:8 *94:58 0.000139647
11 *43:12 *54:40 1.21972e-05
*RES
1 *233:X *43:8 39.9057 
2 *43:8 *43:12 15.6214 
3 *43:12 *310:A 23 
4 *43:12 *246:A3 27.9507 
*END

*D_NET *44 0.00316717
*CONN
*I *246:A2 I *D sky130_fd_sc_hd__o31ai_4
*I *236:B I *D sky130_fd_sc_hd__or2_1
*I *235:B I *D sky130_fd_sc_hd__nand2_1
*I *234:X O *D sky130_fd_sc_hd__xor2_1
*CAP
1 *246:A2 0.000347202
2 *236:B 0
3 *235:B 0.000184605
4 *234:X 0.000292437
5 *44:25 0.000394732
6 *44:8 0.000524572
7 *235:B *238:A2 9.84851e-05
8 *235:B *47:10 1.14452e-05
9 *235:B *79:31 5.50106e-05
10 *235:B *97:10 0
11 *246:A2 *245:A1 1.32314e-05
12 *246:A2 *245:B1_N 5.50106e-05
13 *246:A2 *53:8 0.000360008
14 *246:A2 *94:41 0
15 *44:8 *94:21 0.000193163
16 *44:8 *94:28 0.000292188
17 *44:25 *94:41 0
18 *36:47 *235:B 0.000168408
19 *36:47 *246:A2 0.000126705
20 *36:47 *44:25 4.99647e-05
*RES
1 *234:X *44:8 43.8621 
2 *44:8 *235:B 42.4743 
3 *44:8 *44:25 0.849286 
4 *44:25 *236:B 38 
5 *44:25 *246:A2 46.2857 
*END

*D_NET *45 0.000468206
*CONN
*I *238:A2 I *D sky130_fd_sc_hd__a31o_1
*I *235:Y O *D sky130_fd_sc_hd__nand2_1
*CAP
1 *238:A2 0.000170627
2 *235:Y 0.000170627
3 *238:A2 *79:31 2.4754e-05
4 *235:B *238:A2 9.84851e-05
5 *26:10 *238:A2 3.7122e-06
*RES
1 *235:Y *238:A2 49.0036 
*END

*D_NET *46 0.00082234
*CONN
*I *238:A3 I *D sky130_fd_sc_hd__a31o_1
*I *241:B1 I *D sky130_fd_sc_hd__o21ai_2
*I *236:X O *D sky130_fd_sc_hd__or2_1
*CAP
1 *238:A3 0
2 *241:B1 2.95294e-05
3 *236:X 0
4 *46:19 0.000116232
5 *46:4 0.000145761
6 *241:B1 *94:28 5.50049e-05
7 *46:19 *82:20 0.000217473
8 *46:19 *94:28 4.08664e-05
9 *35:63 *46:19 0.000217473
*RES
1 *236:X *46:4 23 
2 *46:4 *241:B1 23.6214 
3 *46:4 *46:19 33.5836 
4 *46:19 *238:A3 23 
*END

*D_NET *47 0.000881434
*CONN
*I *238:B1 I *D sky130_fd_sc_hd__a31o_1
*I *237:X O *D sky130_fd_sc_hd__a22o_1
*CAP
1 *238:B1 0
2 *237:X 0.000197755
3 *47:10 0.000197755
4 *47:10 *237:A2 1.57571e-05
5 *47:10 *79:31 8.41012e-05
6 *235:B *47:10 1.14452e-05
7 *294:A *47:10 6.17437e-06
8 *25:10 *47:10 0
9 *36:38 *47:10 0.000357
10 *36:47 *47:10 1.14452e-05
*RES
1 *237:X *47:10 43.3443 
2 *47:10 *238:B1 38 
*END

*D_NET *48 0.00267618
*CONN
*I *243:A1 I *D sky130_fd_sc_hd__a21oi_1
*I *240:A I *D sky130_fd_sc_hd__inv_2
*I *242:A1 I *D sky130_fd_sc_hd__o21ai_1
*I *239:Y O *D sky130_fd_sc_hd__xnor2_1
*CAP
1 *243:A1 0.000388734
2 *240:A 0.000247229
3 *242:A1 0
4 *239:Y 0
5 *48:16 0.000440042
6 *48:4 0.000581547
7 *240:A *82:20 0.000310647
8 *243:A1 *239:A 0
9 *243:A1 *239:B 6.59889e-05
10 *243:A1 *243:A2 1.3109e-05
11 *243:A1 *244:A2 0.000121918
12 *243:A1 *244:C1 2.93747e-05
13 *243:A1 *88:29 2.69066e-07
14 *48:16 *243:A2 0
15 *48:16 *82:6 4.95081e-05
16 *48:16 *82:20 1.32314e-05
17 *48:16 *82:136 0
18 *48:16 *83:62 0.00013759
19 *242:B1 *240:A 0.000223692
20 *244:B1 *243:A1 5.3304e-05
*RES
1 *239:Y *48:4 23 
2 *48:4 *48:16 34.2464 
3 *48:16 *242:A1 23 
4 *48:16 *240:A 28.8621 
5 *48:4 *243:A1 29.525 
*END

*D_NET *49 0.00050127
*CONN
*I *246:A1 I *D sky130_fd_sc_hd__o31ai_4
*I *240:Y O *D sky130_fd_sc_hd__inv_2
*CAP
1 *246:A1 0
2 *240:Y 0.000249252
3 *49:10 0.000249252
4 *49:10 *245:B1_N 2.76611e-06
5 *49:10 *88:53 0
6 *49:10 *96:10 0
7 *3:13 *49:10 0
*RES
1 *240:Y *49:10 41.8321 
2 *49:10 *246:A1 38 
*END

*D_NET *50 0.00233699
*CONN
*I *243:A2 I *D sky130_fd_sc_hd__a21oi_1
*I *242:A2 I *D sky130_fd_sc_hd__o21ai_1
*I *241:Y O *D sky130_fd_sc_hd__o21ai_2
*CAP
1 *243:A2 0.000476372
2 *242:A2 0
3 *241:Y 0.000317411
4 *50:10 0.000793783
5 *243:A2 *239:B 2.79741e-05
6 *243:A2 *244:C1 4.64729e-05
7 *243:A2 *272:A1 0.000116314
8 *243:A2 *82:136 0.000110922
9 *243:A2 *83:62 0
10 *243:A2 *88:29 3.84478e-06
11 *50:10 *83:62 0
12 *50:10 *94:21 3.22879e-05
13 *50:10 *94:28 3.22879e-05
14 *243:A1 *243:A2 1.3109e-05
15 *34:10 *50:10 0.000112535
16 *35:57 *243:A2 0.000104869
17 *35:63 *243:A2 0.000148803
18 *35:63 *50:10 0
19 *48:16 *243:A2 0
*RES
1 *241:Y *50:10 44.1729 
2 *50:10 *242:A2 38 
3 *50:10 *243:A2 46.7 
*END

*D_NET *51 0.000466794
*CONN
*I *243:B1 I *D sky130_fd_sc_hd__a21oi_1
*I *242:Y O *D sky130_fd_sc_hd__o21ai_1
*CAP
1 *243:B1 0
2 *242:Y 0.000150647
3 *51:10 0.000150647
4 *51:10 *82:20 9.84794e-05
5 *35:57 *51:10 2.76611e-06
6 *35:63 *51:10 3.21223e-05
7 *36:62 *51:10 3.21327e-05
*RES
1 *242:Y *51:10 40.6514 
2 *51:10 *243:B1 38 
*END

*D_NET *52 0.000168928
*CONN
*I *244:C1 I *D sky130_fd_sc_hd__a221o_1
*I *243:Y O *D sky130_fd_sc_hd__a21oi_1
*CAP
1 *244:C1 4.65402e-05
2 *243:Y 4.65402e-05
3 *244:C1 *239:B 0
4 *243:A1 *244:C1 2.93747e-05
5 *243:A2 *244:C1 4.64729e-05
*RES
1 *243:Y *244:C1 47.4707 
*END

*D_NET *53 0.0017176
*CONN
*I *246:B1 I *D sky130_fd_sc_hd__o31ai_4
*I *245:Y O *D sky130_fd_sc_hd__o21bai_1
*CAP
1 *246:B1 0
2 *245:Y 0.000622471
3 *53:8 0.000622471
4 *53:8 *96:10 7.32055e-05
5 *246:A2 *53:8 0.000360008
6 *246:A3 *53:8 3.94445e-05
*RES
1 *245:Y *53:8 32.57 
2 *53:8 *246:B1 23 
*END

*D_NET *54 0.00365584
*CONN
*I *264:A1 I *D sky130_fd_sc_hd__a31o_1
*I *250:A I *D sky130_fd_sc_hd__or2_1
*I *314:A I *D sky130_fd_sc_hd__clkbuf_1
*I *251:A I *D sky130_fd_sc_hd__nand2_1
*I *246:Y O *D sky130_fd_sc_hd__o31ai_4
*CAP
1 *264:A1 0.000318629
2 *250:A 4.19294e-05
3 *314:A 0
4 *251:A 1.86621e-05
5 *246:Y 0
6 *54:40 0.0006569
7 *54:18 0.000270321
8 *54:4 0.000548001
9 *250:A *250:B 9.03784e-05
10 *250:A *278:CLK 0
11 *250:A *58:10 2.76611e-06
12 *251:A *55:26 3.77245e-05
13 *251:A *57:18 7.03647e-06
14 *251:A *57:25 2.11687e-05
15 *264:A1 *248:A_N 0.000129995
16 *264:A1 *250:B 7.39034e-05
17 *264:A1 *263:A1 7.20312e-05
18 *264:A1 *264:A2 0.000686506
19 *264:A1 *58:10 3.56537e-05
20 *264:A1 *62:10 2.54749e-05
21 *264:A1 *69:8 0.00014411
22 *54:18 *255:A1 6.17437e-06
23 *54:18 *55:26 0.000113484
24 *54:18 *57:18 0
25 *54:18 *57:25 9.4726e-06