*SPEF "ieee 1481-1999"
*DESIGN "counter"
*DATE "03:22:19 Friday December 20, 2024"
*VENDOR "The OpenROAD Project"
*PROGRAM "OpenROAD"
*VERSION "b16bda7e82721d10566ff7e2b68f1ff0be9f9e38"
*DESIGN_FLOW "NAME_SCOPE LOCAL" "PIN_CAP NONE"
*DIVIDER /
*DELIMITER :
*BUS_DELIMITER []
*T_UNIT 1 NS
*C_UNIT 1 PF
*R_UNIT 1 OHM
*L_UNIT 1 HENRY

*NAME_MAP
*3 clk
*4 count[0]
*5 count[1]
*6 count[2]
*7 count[3]
*8 count[4]
*9 count[5]
*10 count[6]
*11 count[7]
*12 data[0]
*13 data[1]
*14 data[2]
*15 data[3]
*16 data[4]
*17 data[5]
*18 data[6]
*19 data[7]
*20 enable
*21 preload
*22 resetn
*23 up_down
*24 _000_
*25 _001_
*26 _002_
*27 _003_
*28 _004_
*29 _005_
*30 _006_
*31 _007_
*32 _008_
*33 _009_
*34 _010_
*35 _011_
*36 _012_
*37 _013_
*38 _014_
*39 _015_
*40 _016_
*41 _017_
*42 _018_
*43 _019_
*44 _020_
*45 _021_
*46 _022_
*47 _023_
*48 _024_
*49 _025_
*50 _026_
*51 _027_
*52 _028_
*53 _029_
*54 _030_
*55 _031_
*56 _032_
*57 _033_
*58 _034_
*59 _035_
*60 _036_
*61 _037_
*62 _038_
*63 _039_
*64 _040_
*65 _041_
*66 _042_
*67 _043_
*68 _044_
*69 _045_
*70 _046_
*71 _047_
*72 _048_
*73 _049_
*74 _050_
*75 _051_
*76 _052_
*77 _053_
*78 clknet_0_clk
*79 clknet_1_0__leaf_clk
*80 clknet_1_1__leaf_clk
*81 net1
*82 net10
*83 net11
*84 net12
*85 net13
*86 net14
*87 net15
*88 net16
*89 net17
*90 net18
*91 net19
*92 net2
*93 net20
*94 net3
*95 net4
*96 net5
*97 net6
*98 net7
*99 net8
*100 net9
*101 FILLER_0_0_15
*102 FILLER_0_0_23
*103 FILLER_0_0_27
*104 FILLER_0_0_29
*105 FILLER_0_0_3
*106 FILLER_0_0_37
*107 FILLER_0_0_41
*108 FILLER_0_0_51
*109 FILLER_0_0_55
*110 FILLER_0_0_70
*111 FILLER_0_10_14
*112 FILLER_0_10_21
*113 FILLER_0_10_27
*114 FILLER_0_10_29
*115 FILLER_0_10_49
*116 FILLER_0_10_6
*117 FILLER_0_10_62
*118 FILLER_0_10_74
*119 FILLER_0_11_15
*120 FILLER_0_11_24
*121 FILLER_0_11_51
*122 FILLER_0_11_55
*123 FILLER_0_11_57
*124 FILLER_0_11_6
*125 FILLER_0_11_69
*126 FILLER_0_11_77
*127 FILLER_0_12_15
*128 FILLER_0_12_27
*129 FILLER_0_12_29
*130 FILLER_0_12_3
*131 FILLER_0_12_37
*132 FILLER_0_12_41
*133 FILLER_0_12_48
*134 FILLER_0_12_57
*135 FILLER_0_12_69
*136 FILLER_0_12_77
*137 FILLER_0_1_54
*138 FILLER_0_1_57
*139 FILLER_0_2_14
*140 FILLER_0_2_24
*141 FILLER_0_2_29
*142 FILLER_0_2_44
*143 FILLER_0_2_6
*144 FILLER_0_2_70
*145 FILLER_0_3_13
*146 FILLER_0_3_21
*147 FILLER_0_3_30
*148 FILLER_0_3_34
*149 FILLER_0_3_53
*150 FILLER_0_3_61
*151 FILLER_0_3_73
*152 FILLER_0_3_77
*153 FILLER_0_4_15
*154 FILLER_0_4_27
*155 FILLER_0_4_3
*156 FILLER_0_4_39
*157 FILLER_0_4_43
*158 FILLER_0_5_18
*159 FILLER_0_5_35
*160 FILLER_0_5_7
*161 FILLER_0_5_71
*162 FILLER_0_6_18
*163 FILLER_0_6_26
*164 FILLER_0_6_29
*165 FILLER_0_6_57
*166 FILLER_0_6_73
*167 FILLER_0_7_35
*168 FILLER_0_7_57
*169 FILLER_0_7_67
*170 FILLER_0_7_9
*171 FILLER_0_8_17
*172 FILLER_0_8_25
*173 FILLER_0_8_49
*174 FILLER_0_8_9
*175 FILLER_0_9_23
*176 FILLER_0_9_29
*177 FILLER_0_9_50
*178 FILLER_0_9_57
*179 FILLER_0_9_63
*180 FILLER_0_9_71
*181 PHY_EDGE_ROW_0_Left_13
*182 PHY_EDGE_ROW_0_Right_0
*183 PHY_EDGE_ROW_10_Left_23
*184 PHY_EDGE_ROW_10_Right_10
*185 PHY_EDGE_ROW_11_Left_24
*186 PHY_EDGE_ROW_11_Right_11
*187 PHY_EDGE_ROW_12_Left_25
*188 PHY_EDGE_ROW_12_Right_12
*189 PHY_EDGE_ROW_1_Left_14
*190 PHY_EDGE_ROW_1_Right_1
*191 PHY_EDGE_ROW_2_Left_15
*192 PHY_EDGE_ROW_2_Right_2
*193 PHY_EDGE_ROW_3_Left_16
*194 PHY_EDGE_ROW_3_Right_3
*195 PHY_EDGE_ROW_4_Left_17
*196 PHY_EDGE_ROW_4_Right_4
*197 PHY_EDGE_ROW_5_Left_18
*198 PHY_EDGE_ROW_5_Right_5
*199 PHY_EDGE_ROW_6_Left_19
*200 PHY_EDGE_ROW_6_Right_6
*201 PHY_EDGE_ROW_7_Left_20
*202 PHY_EDGE_ROW_7_Right_7
*203 PHY_EDGE_ROW_8_Left_21
*204 PHY_EDGE_ROW_8_Right_8
*205 PHY_EDGE_ROW_9_Left_22
*206 PHY_EDGE_ROW_9_Right_9
*207 TAP_TAPCELL_ROW_0_26
*208 TAP_TAPCELL_ROW_0_27
*209 TAP_TAPCELL_ROW_10_37
*210 TAP_TAPCELL_ROW_11_38
*211 TAP_TAPCELL_ROW_12_39
*212 TAP_TAPCELL_ROW_12_40
*213 TAP_TAPCELL_ROW_1_28
*214 TAP_TAPCELL_ROW_2_29
*215 TAP_TAPCELL_ROW_3_30
*216 TAP_TAPCELL_ROW_4_31
*217 TAP_TAPCELL_ROW_5_32
*218 TAP_TAPCELL_ROW_6_33
*219 TAP_TAPCELL_ROW_7_34
*220 TAP_TAPCELL_ROW_8_35
*221 TAP_TAPCELL_ROW_9_36
*222 _054_
*223 _055_
*224 _056_
*225 _057_
*226 _058_
*227 _059_
*228 _060_
*229 _061_
*230 _062_
*231 _063_
*232 _064_
*233 _065_
*234 _066_
*235 _067_
*236 _068_
*237 _069_
*238 _070_
*239 _071_
*240 _072_
*241 _073_
*242 _074_
*243 _075_
*244 _076_
*245 _077_
*246 _078_
*247 _079_
*248 _080_
*249 _081_
*250 _082_
*251 _083_
*252 _084_
*253 _085_
*254 _086_
*255 _087_
*256 _088_
*257 _089_
*258 _090_
*259 _091_
*260 _092_
*261 _093_
*262 _094_
*263 _095_
*264 _096_
*265 _097_
*266 _098_
*267 _099_
*268 _100_
*269 _101_
*270 _102_
*271 _103_
*272 _104_
*273 _105_
*274 _106_
*275 _107_
*276 _108_
*277 _109_
*278 _110_
*279 _111_
*280 _112_
*281 _113_
*282 _114_
*283 _115_
*284 clkbuf_0_clk
*285 clkbuf_1_0__f_clk
*286 clkbuf_1_1__f_clk
*287 clkload0
*288 input1
*289 input10
*290 input11
*291 input12
*292 input2
*293 input3
*294 input4
*295 input5
*296 input6
*297 input7
*298 input8
*299 input9
*300 output13
*301 output14
*302 output15
*303 output16
*304 output17
*305 output18
*306 output19
*307 output20

*PORTS
clk I
count[0] O
count[1] O
count[2] O
count[3] O
count[4] O
count[5] O
count[6] O
count[7] O
data[0] I
data[1] I
data[2] I
data[3] I
data[4] I
data[5] I
data[6] I
data[7] I
enable I
preload I
resetn I
up_down I

*D_NET *3 0.00414613
*CONN
*P clk I
*I *284:A I *D sky130_fd_sc_hd__clkbuf_16
*CAP
1 clk 0.00193899
2 *284:A 0
3 *3:13 0.00193899
4 *3:13 count[2] 3.12475e-05
5 *3:13 count[3] 0
6 *3:13 *247:A2 0
7 *3:13 *266:A2 0
8 *3:13 *21:17 2.12457e-05
9 *3:13 *35:39 5.56279e-05
10 *3:13 *35:69 0
11 *3:13 *43:30 3.67805e-05
12 *3:13 *44:34 0
13 *3:13 *54:16 3.91643e-05
14 *3:13 *54:36 8.40914e-05
15 *3:13 *84:46 0
*RES
1 clk *3:13 35.1007 
2 *3:13 *284:A 23 
*END

*D_NET *4 0.000783697
*CONN
*P count[0] O
*I *300:X O *D sky130_fd_sc_hd__buf_1
*CAP
1 count[0] 0.000360602
2 *300:X 0.000360602
3 count[0] *22:11 6.2493e-05
4 count[0] *81:8 0
*RES
1 *300:X count[0] 48.0408 
*END

*D_NET *5 0.000887054
*CONN
*P count[1] O
*I *301:X O *D sky130_fd_sc_hd__buf_1
*CAP
1 count[1] 0.000440891
2 *301:X 0.000440891
3 count[1] *292:A 0
4 count[1] *82:52 5.27215e-06
*RES
1 *301:X count[1] 46.6171 
*END

*D_NET *6 0.000621538
*CONN
*P count[2] O
*I *302:X O *D sky130_fd_sc_hd__buf_1
*CAP
1 count[2] 0.000295145
2 *302:X 0.000295145
3 *3:13 count[2] 3.12475e-05
*RES
1 *302:X count[2] 49.8062 
*END

*D_NET *7 0.00110646
*CONN
*P count[3] O
*I *303:X O *D sky130_fd_sc_hd__buf_1
*CAP
1 count[3] 0.000272515
2 *303:X 0.000135261
3 *7:10 0.000407776
4 count[3] *15:17 3.12475e-05
5 count[3] *21:17 2.79122e-05
6 count[3] *23:13 0
7 *7:10 *84:8 0.000156379
8 *7:10 *84:10 7.53721e-05
9 *3:13 count[3] 0
*RES
1 *303:X *7:10 49.1382 
2 *7:10 count[3] 1.01547 
*END

*D_NET *8 0.000427343
*CONN
*P count[4] O
*I *304:X O *D sky130_fd_sc_hd__buf_1
*CAP
1 count[4] 0.000140831
2 *304:X 0.000140831
3 count[4] *296:A 6.91091e-05
4 count[4] *299:A 6.31178e-05
5 count[4] *304:A 1.34542e-05
*RES
1 *304:X count[4] 46.9931 
*END

*D_NET *9 0.000508341
*CONN
*P count[5] O
*I *305:X O *D sky130_fd_sc_hd__buf_1
*CAP
1 count[5] 0.000219616
2 *305:X 0.000219616
3 count[5] *296:A 6.91091e-05
*RES
1 *305:X count[5] 47.6974 
*END

*D_NET *10 0.000981982
*CONN
*P count[6] O
*I *306:X O *D sky130_fd_sc_hd__buf_1
*CAP
1 count[6] 0.000490991
2 *306:X 0.000490991
3 count[6] *18:9 0
*RES
1 *306:X count[6] 48.875 
*END

*D_NET *11 0.000550881
*CONN
*P count[7] O
*I *307:X O *D sky130_fd_sc_hd__buf_1
*CAP
1 count[7] 0.000249635
2 *307:X 0.000249635
3 count[7] *19:17 2.79122e-05
4 count[7] *23:13 0
5 count[7] *93:23 2.36993e-05
*RES
1 *307:X count[7] 47.4311 
*END

*D_NET *12 0.00159899
*CONN
*P data[0] I
*I *288:A I *D sky130_fd_sc_hd__clkbuf_1
*CAP
1 data[0] 0.00064872
2 *288:A 0
3 *12:15 0.00064872
4 *12:15 *227:B1 0.00014196
5 *12:15 *300:A 4.07902e-05
6 *12:15 *32:6 4.95081e-05
7 *12:15 *32:12 4.45701e-05
8 *12:15 *33:16 1.22822e-05
9 *12:15 *83:10 1.24376e-05
*RES
1 data[0] *12:15 28.5679 
2 *12:15 *288:A 23 
*END

*D_NET *13 0.00128972
*CONN
*P data[1] I
*I *292:A I *D sky130_fd_sc_hd__clkbuf_1
*CAP
1 data[1] 0.000486836
2 *292:A 0.000486836
3 *292:A *234:A1 9.84851e-05
4 *292:A *234:B1 0.000107175
5 *292:A *35:71 3.88431e-05
6 *292:A *35:81 7.15434e-05
7 count[1] *292:A 0
*RES
1 data[1] *292:A 49.1857 
*END

*D_NET *14 0.00119948
*CONN
*P data[2] I
*I *293:A I *D sky130_fd_sc_hd__clkbuf_1
*CAP
1 data[2] 0.000547423
2 *293:A 0.000547423
3 *293:A *239:A1 1.24376e-05
4 *293:A *239:A2 1.94812e-05
5 *293:A *35:81 0
6 *293:A *82:52 7.27182e-05
*RES
1 data[2] *293:A 49.1236 
*END

*D_NET *15 0.00074305
*CONN
*P data[3] I
*I *294:A I *D sky130_fd_sc_hd__clkbuf_1
*CAP
1 data[3] 0.000345748
2 *294:A 0
3 *15:17 0.000345748
4 *15:17 *23:13 2.0307e-05
5 *15:17 *84:8 0
6 count[3] *15:17 3.12475e-05
*RES
1 data[3] *15:17 27.8627 
2 *15:17 *294:A 23 
*END

*D_NET *16 0.000640096
*CONN
*P data[4] I
*I *295:A I *D sky130_fd_sc_hd__clkbuf_1
*CAP
1 data[4] 0.000245739
2 *295:A 0.000245739
3 *295:A *299:A 6.91091e-05
4 *295:A *22:11 0
5 *295:A *89:10 7.95085e-05
*RES
1 data[4] *295:A 48.7538 
*END

*D_NET *17 0.000730644
*CONN
*P data[5] I
*I *296:A I *D sky130_fd_sc_hd__clkbuf_1
*CAP
1 data[5] 0.000296213
2 *296:A 0.000296213
3 *296:A *35:23 0
4 count[4] *296:A 6.91091e-05
5 count[5] *296:A 6.91091e-05
*RES
1 data[5] *296:A 49.4581 
*END

*D_NET *18 0.00123081
*CONN
*P data[6] I
*I *297:A I *D sky130_fd_sc_hd__clkbuf_1
*CAP
1 data[6] 0.000615404
2 *297:A 0
3 *18:9 0.000615404
4 count[6] *18:9 0
*RES
1 data[6] *18:9 27.7393 
2 *18:9 *297:A 23 
*END

*D_NET *19 0.000684707
*CONN
*P data[7] I
*I *298:A I *D sky130_fd_sc_hd__clkbuf_1
*CAP
1 data[7] 0.000317774
2 *298:A 0
3 *19:17 0.000317774
4 *19:17 *23:13 2.12457e-05
5 *19:17 *93:23 0
6 count[7] *19:17 2.79122e-05
*RES
1 data[7] *19:17 27.5105 
2 *19:17 *298:A 23 
*END

*D_NET *20 0.000506962
*CONN
*P enable I
*I *299:A I *D sky130_fd_sc_hd__buf_1
*CAP
1 enable 0.000167478
2 *299:A 0.000167478
3 *299:A *89:10 3.9779e-05
4 count[4] *299:A 6.31178e-05
5 *295:A *299:A 6.91091e-05
*RES
1 enable *299:A 47.6974 
*END

*D_NET *21 0.000715557
*CONN
*P preload I
*I *289:A I *D sky130_fd_sc_hd__buf_2
*CAP
1 preload 0.0003332
2 *289:A 0
3 *21:17 0.0003332
4 *21:17 *84:10 0
5 count[3] *21:17 2.79122e-05
6 *3:13 *21:17 2.12457e-05
*RES
1 preload *21:17 27.8627 
2 *21:17 *289:A 23 
*END

*D_NET *22 0.00109382
*CONN
*P resetn I
*I *290:A I *D sky130_fd_sc_hd__buf_2
*CAP
1 resetn 0.000451674
2 *290:A 0
3 *22:11 0.000451674
4 *22:11 *33:8 0
5 *22:11 *81:8 0
6 *22:11 *83:10 0
7 *22:11 *85:10 0.000127981
8 count[0] *22:11 6.2493e-05
9 *295:A *22:11 0
*RES
1 resetn *22:11 29.2752 
2 *22:11 *290:A 23 
*END

*D_NET *23 0.000606948
*CONN
*P up_down I
*I *291:A I *D sky130_fd_sc_hd__clkbuf_4
*CAP
1 up_down 0.000282698
2 *291:A 0
3 *23:13 0.000282698
4 *23:13 *274:B2 0
5 count[3] *23:13 0
6 count[7] *23:13 0
7 *15:17 *23:13 2.0307e-05
8 *19:17 *23:13 2.12457e-05
*RES
1 up_down *23:13 27.0053 
2 *23:13 *291:A 23 
*END

*D_NET *24 0.00129827
*CONN
*I *276:D I *D sky130_fd_sc_hd__dfrtp_1
*I *228:Y O *D sky130_fd_sc_hd__a21oi_1
*CAP
1 *276:D 0.000119565
2 *228:Y 0.00021097
3 *24:10 0.000330535
4 *276:D *79:12 7.42621e-05
5 *276:D *79:14 4.96717e-05
6 *24:10 *32:12 1.44546e-05
7 *24:10 *32:25 0.000116234
8 *24:10 *36:24 5.3846e-06
9 *24:10 *37:8 0.000377191
*RES
1 *228:Y *24:10 43.6964 
2 *24:10 *276:D 40.5271 
*END

*D_NET *25 0.000458443
*CONN
*I *277:D I *D sky130_fd_sc_hd__dfrtp_1
*I *234:X O *D sky130_fd_sc_hd__a21o_1
*CAP
1 *277:D 0
2 *234:X 0.000181585
3 *25:10 0.000181585
4 *25:10 *301:A 5.68958e-05
5 *25:10 *82:52 3.83778e-05
*RES
1 *234:X *25:10 41.0036 
2 *25:10 *277:D 38 
*END

*D_NET *26 0.000534967
*CONN
*I *278:D I *D sky130_fd_sc_hd__dfrtp_2
*I *240:X O *D sky130_fd_sc_hd__a31o_1
*CAP
1 *278:D 0
2 *240:X 0.000168701
3 *26:10 0.000168701
4 *26:10 *278:RESET_B 0.000141954
5 *26:10 *47:8 5.561e-05
*RES
1 *240:X *26:10 41.1279 
2 *26:10 *278:D 38 
*END

*D_NET *27 0.000349296
*CONN
*I *279:D I *D sky130_fd_sc_hd__dfrtp_1
*I *246:X O *D sky130_fd_sc_hd__a221o_1
*CAP
1 *279:D 0
2 *246:X 0.000122078
3 *27:10 0.000122078
4 *27:10 *36:60 7.28526e-05
5 *27:10 *88:25 3.22879e-05
*RES
1 *246:X *27:10 40.5271 
2 *27:10 *279:D 38 
*END

*D_NET *28 0.000758029
*CONN
*I *280:D I *D sky130_fd_sc_hd__dfrtp_1
*I *255:X O *D sky130_fd_sc_hd__a31o_1
*CAP
1 *280:D 0
2 *255:X 0.000195701
3 *28:10 0.000195701
4 *28:10 *255:A2 0.000141954
5 *28:10 *36:8 1.24376e-05
6 *28:10 *36:16 0.000141869
7 *28:10 *82:100 7.03663e-05
*RES
1 *255:X *28:10 41.9564 
2 *28:10 *280:D 38 
*END

*D_NET *29 0.00048672
*CONN
*I *281:D I *D sky130_fd_sc_hd__dfrtp_1
*I *261:X O *D sky130_fd_sc_hd__a31o_1
*CAP
1 *281:D 0
2 *261:X 0.000172984
3 *29:10 0.000172984
4 *29:10 *261:A2 5.67058e-05
5 *29:10 *266:A3 0
6 *29:10 *64:10 8.4047e-05
7 *29:10 *65:10 0
*RES
1 *261:X *29:10 40.8793 
2 *29:10 *281:D 38 
*END

*D_NET *30 0.000945142
*CONN
*I *282:D I *D sky130_fd_sc_hd__dfrtp_1
*I *270:X O *D sky130_fd_sc_hd__a31o_1
*CAP
1 *282:D 6.83746e-05
2 *270:X 0.00030924
3 *30:10 0.000377614
4 *282:D *282:CLK 4.9939e-05
5 *30:10 *283:RESET_B 0
6 *30:10 *36:73 9.91101e-05
7 *30:10 *80:12 4.08641e-05
8 *30:10 *82:145 0
*RES
1 *270:X *30:10 43.1164 
2 *30:10 *282:D 38.9995 
*END

*D_NET *31 0.000730879
*CONN
*I *283:D I *D sky130_fd_sc_hd__dfrtp_1
*I *275:X O *D sky130_fd_sc_hd__a21o_1
*CAP
1 *283:D 2.24548e-05
2 *275:X 0.000214054
3 *31:10 0.000236508
4 *283:D *283:RESET_B 5.50106e-05
5 *31:10 *36:60 9.41704e-05
6 *31:10 *77:10 0.000108681
*RES
1 *275:X *31:10 41.1279 
2 *31:10 *283:D 38.6214 
*END

*D_NET *32 0.00320738
*CONN
*I *227:B2 I *D sky130_fd_sc_hd__a22o_1
*I *232:A1 I *D sky130_fd_sc_hd__o21a_1
*I *235:A1 I *D sky130_fd_sc_hd__o21a_1
*I *231:A I *D sky130_fd_sc_hd__nand2_1
*I *222:Y O *D sky130_fd_sc_hd__inv_2
*CAP
1 *227:B2 1.74641e-05
2 *232:A1 0
3 *235:A1 9.86826e-06
4 *231:A 0
5 *222:Y 1.36349e-05
6 *32:25 0.000461808
7 *32:12 0.000664636
8 *32:6 0.000243796
9 *227:B2 *300:A 1.37232e-05
10 *235:A1 *235:A2 3.22051e-05
11 *235:A1 *36:32 5.79559e-05
12 *32:6 *33:16 0.00010018
13 *32:12 *227:A1 0
14 *32:12 *227:B1 0.000205566
15 *32:12 *33:16 0.000182826
16 *32:12 *37:8 0
17 *32:12 *39:34 2.76611e-06
18 *32:12 *40:8 0.000140958
19 *32:12 *82:73 0.000244575
20 *32:12 *92:10 0
21 *32:25 *235:A2 2.1819e-05
22 *32:25 *287:A 5.50049e-05
23 *32:25 *36:24 0.000177042
24 *32:25 *36:32 0.000146822
25 *32:25 *37:8 0
26 *32:25 *39:34 5.13205e-05
27 *32:25 *41:10 2.64616e-05
28 *32:25 *78:12 0.00011218
29 *12:15 *32:6 4.95081e-05
30 *12:15 *32:12 4.45701e-05
31 *24:10 *32:12 1.44546e-05
32 *24:10 *32:25 0.000116234
*RES
1 *222:Y *32:6 24.0979 
2 *32:6 *32:12 22.8714 
3 *32:12 *231:A 38 
4 *32:12 *32:25 26.2893 
5 *32:25 *235:A1 23.6214 
6 *32:25 *232:A1 23 
7 *32:6 *227:B2 23.4971 
*END

*D_NET *33 0.00184251
*CONN
*I *227:A2 I *D sky130_fd_sc_hd__a22o_1
*I *223:Y O *D sky130_fd_sc_hd__inv_2
*CAP
1 *227:A2 0
2 *223:Y 9.92268e-05
3 *33:16 0.000245893
4 *33:8 0.000345119
5 *33:8 *81:8 0.00030457
6 *33:8 *83:10 0.000225275
7 *33:8 *83:21 0.000116314
8 *33:16 *227:A1 6.16439e-05
9 *33:16 *300:A 9.5877e-05
10 *33:16 *40:8 0
11 *33:16 *82:73 5.3304e-05
12 *12:15 *33:16 1.22822e-05
13 *22:11 *33:8 0
14 *32:6 *33:16 0.00010018
15 *32:12 *33:16 0.000182826
*RES
1 *223:Y *33:8 42.3707 
2 *33:8 *33:16 35.2821 
3 *33:16 *227:A2 38 
*END

*D_NET *34 0.000344435
*CONN
*I *243:A2 I *D sky130_fd_sc_hd__o21ai_1
*I *224:Y O *D sky130_fd_sc_hd__inv_2
*CAP
1 *243:A2 0
2 *224:Y 0.000156074
3 *34:10 0.000156074
4 *34:10 *236:A 0
5 *34:10 *36:45 0
6 *34:10 *87:64 3.22879e-05
*RES
1 *224:Y *34:10 40.5271 
2 *34:10 *243:A2 38 
*END

*D_NET *35 0.0176388
*CONN
*I *260:B1 I *D sky130_fd_sc_hd__a22o_1
*I *269:B1 I *D sky130_fd_sc_hd__a22o_1
*I *233:B1 I *D sky130_fd_sc_hd__a22o_1
*I *227:B1 I *D sky130_fd_sc_hd__a22o_1
*I *239:B1 I *D sky130_fd_sc_hd__a22o_1
*I *246:B1 I *D sky130_fd_sc_hd__a221o_1
*I *274:B1 I *D sky130_fd_sc_hd__a22o_1
*I *254:B1 I *D sky130_fd_sc_hd__a22o_1
*I *225:Y O *D sky130_fd_sc_hd__nor2_2
*CAP
1 *260:B1 6.01078e-05
2 *269:B1 0.000264502
3 *233:B1 0
4 *227:B1 0.000413239
5 *239:B1 0
6 *246:B1 2.34823e-05
7 *274:B1 0
8 *254:B1 0.000226306
9 *225:Y 5.15114e-05
10 *35:81 0.00121801
11 *35:71 0.00177921
12 *35:69 0.000895555
13 *35:47 0.000326621
14 *35:39 0.00137456
15 *35:37 0.00225907
16 *35:29 0.00133258
17 *35:23 0.000942639
18 *35:8 0.000579301
19 *227:B1 *234:A1 0.000140259
20 *227:B1 *234:B1 2.93845e-05
21 *227:B1 *40:8 9.48381e-06
22 *227:B1 *82:73 4.21471e-05
23 *254:B1 *225:A 0.000107287
24 *254:B1 *254:A1 2.4754e-05
25 *254:B1 *83:62 0.000114092
26 *254:B1 *89:10 0
27 *254:B1 *89:14 1.21972e-05
28 *254:B1 *100:16 3.3123e-05
29 *260:B1 *260:B2 5.50049e-05
30 *260:B1 *82:128 2.49836e-05
31 *260:B1 *82:145 6.07611e-06
32 *260:B1 *97:10 5.50049e-05
33 *269:B1 *269:A2 3.23857e-06
34 *269:B1 *70:12 0.000240041
35 *269:B1 *71:10 5.72975e-05
36 *269:B1 *91:16 3.72419e-05
37 *269:B1 *91:29 3.22051e-05
38 *35:8 *89:14 9.84851e-05
39 *35:23 *304:A 0
40 *35:23 *82:128 0.000118797
41 *35:23 *83:62 0.00031868
42 *35:29 *260:B2 0.000299117
43 *35:29 *286:A 5.12254e-05
44 *35:29 *65:10 5.50049e-05
45 *35:29 *82:145 6.16532e-05
46 *35:29 *90:16 0.000398503
47 *35:37 *266:A2 0.000261488
48 *35:37 *70:12 0.000316742
49 *35:39 *82:29 0.000398503
50 *35:39 *88:25 0.000116245
51 *35:47 *246:B2 6.17437e-06
52 *35:47 *274:A1 0.000196832
53 *35:47 *36:60 0
54 *35:47 *52:8 3.55887e-05
55 *35:47 *82:16 1.83667e-05
56 *35:47 *84:8 0
57 *35:47 *88:25 1.5769e-05
58 *35:47 *88:40 0
59 *35:69 *265:B1_N 6.38916e-05
60 *35:69 *266:A2 3.87894e-05
61 *35:69 *280:CLK 2.97176e-05
62 *35:69 *38:10 0
63 *35:69 *41:10 0.000348465
64 *35:69 *54:16 0
65 *35:69 *54:53 8.4047e-05
66 *35:69 *57:18 0.000239888
67 *35:69 *78:12 0
68 *35:69 *79:38 2.61802e-05
69 *35:69 *84:85 5.26204e-05
70 *35:69 *86:32 0.000176045
71 *35:69 *89:30 5.45887e-05
72 *35:71 *301:A 0.000216567
73 *35:71 *41:10 0.000246748
74 *35:71 *86:32 1.00084e-05
75 *292:A *35:71 3.88431e-05
76 *292:A *35:81 7.15434e-05
77 *293:A *35:81 0
78 *296:A *35:23 0
79 *3:13 *35:39 5.56279e-05
80 *3:13 *35:69 0
81 *12:15 *227:B1 0.00014196
82 *32:12 *227:B1 0.000205566
*RES
1 *225:Y *35:8 39.0979 
2 *35:8 *254:B1 42.1014 
3 *35:8 *35:23 7.54 
4 *35:23 *35:29 41.5793 
5 *35:29 *35:37 25.1914 
6 *35:37 *35:39 14.4379 
7 *35:39 *35:47 36.7529 
8 *35:47 *274:B1 23 
9 *35:39 *246:B1 23.4971 
10 *35:37 *35:69 30.9914 
11 *35:69 *35:71 4.19464 
12 *35:71 *35:81 46.0639 
13 *35:81 *239:B1 38 
14 *35:71 *227:B1 46.1096 
15 *35:69 *233:B1 38 
16 *35:29 *269:B1 43.0543 
17 *35:23 *260:B1 39.4707 
*END

*D_NET *36 0.0113364
*CONN
*I *255:A1 I *D sky130_fd_sc_hd__a31o_1
*I *261:A1 I *D sky130_fd_sc_hd__a31o_1
*I *228:A2 I *D sky130_fd_sc_hd__a21oi_1
*I *232:B1 I *D sky130_fd_sc_hd__o21a_1
*I *270:A1 I *D sky130_fd_sc_hd__a31o_1
*I *275:A1 I *D sky130_fd_sc_hd__a21o_1
*I *244:B1 I *D sky130_fd_sc_hd__o21ai_1
*I *240:A1 I *D sky130_fd_sc_hd__a31o_1
*I *226:X O *D sky130_fd_sc_hd__and2b_2
*CAP
1 *255:A1 0
2 *261:A1 0.000348071
3 *228:A2 2.58872e-05
4 *232:B1 0
5 *270:A1 0
6 *275:A1 0
7 *244:B1 2.77218e-05
8 *240:A1 0.000196088
9 *226:X 0.000139193
10 *36:73 0.000462771
11 *36:60 0.00107791
12 *36:45 0.00090067
13 *36:32 0.00114438
14 *36:24 0.00110716
15 *36:16 0.000727876
16 *36:10 0.000633382
17 *36:8 0.000139193
18 *228:A2 *228:A1 1.14154e-05
19 *240:A1 *240:A2 5.67058e-05
20 *240:A1 *278:RESET_B 0.000230604
21 *240:A1 *46:12 5.61311e-05
22 *240:A1 *82:29 0
23 *240:A1 *87:34 0
24 *244:B1 *244:A1 5.3304e-05
25 *244:B1 *84:42 2.64616e-05
26 *261:A1 *261:A2 5.41385e-05
27 *261:A1 *265:A1 0
28 *261:A1 *60:10 0.000141869
29 *261:A1 *82:100 1.47563e-05
30 *261:A1 *82:128 0
31 *261:A1 *89:20 0
32 *261:A1 *96:10 2.84912e-05
33 *36:8 *255:A2 3.6428e-05
34 *36:8 *82:100 5.41385e-05
35 *36:16 *59:8 0
36 *36:16 *82:100 6.36304e-05
37 *36:16 *89:30 0
38 *36:24 *228:A1 2.30292e-05
39 *36:24 *287:A 5.50049e-05
40 *36:24 *89:30 0.000312348
41 *36:32 *235:A2 2.49054e-05
42 *36:32 *235:B1 6.77433e-05
43 *36:32 *43:8 6.42367e-05
44 *36:32 *44:6 0.000441076
45 *36:32 *44:17 0.000130423
46 *36:32 *44:34 4.5051e-05
47 *36:45 *236:A 0
48 *36:45 *46:12 1.27191e-05
49 *36:45 *50:8 2.93562e-05
50 *36:45 *82:16 1.58805e-05
51 *36:45 *84:12 0
52 *36:45 *87:34 0
53 *36:45 *87:64 0.000394557
54 *36:60 *274:A1 0.000107558
55 *36:60 *275:A2 5.67058e-05
56 *36:60 *279:RESET_B 0
57 *36:60 *77:10 0.000321581
58 *36:60 *80:40 0
59 *36:60 *82:16 7.87406e-05
60 *36:60 *84:8 0
61 *36:60 *84:131 0
62 *36:60 *87:64 4.6318e-06
63 *36:60 *95:10 0.000192087
64 *36:60 *99:10 0.000196168
65 *36:73 *275:A2 5.67058e-05
66 *36:73 *71:10 0.000119479
67 *36:73 *72:8 2.03974e-05
68 *235:A1 *36:32 5.79559e-05
69 *24:10 *36:24 5.3846e-06
70 *27:10 *36:60 7.28526e-05
71 *28:10 *36:8 1.24376e-05
72 *28:10 *36:16 0.000141869
73 *30:10 *36:73 9.91101e-05
74 *31:10 *36:60 9.41704e-05
75 *32:25 *36:24 0.000177042
76 *32:25 *36:32 0.000146822
77 *34:10 *36:45 0
78 *35:47 *36:60 0
*RES
1 *226:X *36:8 25.5479 
2 *36:8 *36:10 15 
3 *36:10 *36:16 20.3443 
4 *36:16 *36:24 8.90714 
5 *36:24 *36:32 29.4793 
6 *36:32 *240:A1 43.1371 
7 *36:32 *36:45 6.13143 
8 *36:45 *244:B1 38.6214 
9 *36:45 *36:60 30.4529 
10 *36:60 *275:A1 23 
11 *36:60 *36:73 39.0936 
12 *36:73 *270:A1 23 
13 *36:24 *232:B1 23 
14 *36:16 *228:A2 23.8493 
15 *36:10 *261:A1 45.3536 
16 *36:8 *255:A1 23 
*END

*D_NET *37 0.00115435
*CONN
*I *228:B1 I *D sky130_fd_sc_hd__a21oi_1
*I *227:X O *D sky130_fd_sc_hd__a22o_1
*CAP
1 *228:B1 0
2 *227:X 0.00037894
3 *37:8 0.00037894
4 *37:8 *227:A1 4.21594e-06
5 *37:8 *78:12 0
6 *37:8 *79:8 0
7 *37:8 *82:100 1.50637e-05
8 *24:10 *37:8 0.000377191
9 *32:12 *37:8 0
10 *32:25 *37:8 0
*RES
1 *227:X *37:8 46.2443 
2 *37:8 *228:B1 38 
*END

*D_NET *38 0.000653657
*CONN
*I *235:B1 I *D sky130_fd_sc_hd__o21a_1
*I *229:Y O *D sky130_fd_sc_hd__nand2b_1
*CAP
1 *235:B1 4.47754e-05
2 *229:Y 0.000197301
3 *38:10 0.000242076
4 *38:10 *230:B 0.000101762
5 *38:10 *39:12 0
6 *38:10 *84:52 0
7 *35:69 *38:10 0
8 *36:32 *235:B1 6.77433e-05
*RES
1 *229:Y *38:10 41.3557 
2 *38:10 *235:B1 39.1186 
*END

*D_NET *39 0.00187036
*CONN
*I *231:B I *D sky130_fd_sc_hd__nand2_1
*I *232:A2 I *D sky130_fd_sc_hd__o21a_1
*I *235:A2 I *D sky130_fd_sc_hd__o21a_1
*I *230:X O *D sky130_fd_sc_hd__xor2_1
*CAP
1 *231:B 0
2 *232:A2 0
3 *235:A2 0.000105423
4 *230:X 0
5 *39:34 0.000315274
6 *39:12 0.000250238
7 *39:4 0.000460088
8 *39:12 *86:32 5.79559e-05
9 *39:34 *41:10 4.98718e-06
10 *39:34 *78:12 0.000172429
11 *39:34 *79:14 5.50106e-05
12 *39:34 *79:38 0.000188926
13 *39:34 *83:27 3.44001e-05
14 *39:34 *86:32 8.65377e-05
15 *39:34 *92:10 6.07611e-06
16 *235:A1 *235:A2 3.22051e-05
17 *32:12 *39:34 2.76611e-06
18 *32:25 *235:A2 2.1819e-05
19 *32:25 *39:34 5.13205e-05
20 *36:32 *235:A2 2.49054e-05
21 *38:10 *39:12 0
*RES
1 *230:X *39:4 23 
2 *39:4 *39:12 32.5271 
3 *39:12 *235:A2 24.5743 
4 *39:12 *232:A2 23 
5 *39:4 *39:34 37.0636 
6 *39:34 *231:B 23 
*END

*D_NET *40 0.001103
*CONN
*I *234:A1 I *D sky130_fd_sc_hd__a21o_1
*I *231:Y O *D sky130_fd_sc_hd__nand2_1
*CAP
1 *234:A1 0.000190035
2 *231:Y 0.00013
3 *40:8 0.000320035
4 *234:A1 *234:B1 1.03836e-05
5 *40:8 *41:10 0
6 *40:8 *42:8 6.33614e-05
7 *227:B1 *234:A1 0.000140259
8 *227:B1 *40:8 9.48381e-06
9 *292:A *234:A1 9.84851e-05
10 *32:12 *40:8 0.000140958
11 *33:16 *40:8 0
*RES
1 *231:Y *40:8 40.9621 
2 *40:8 *234:A1 41.0036 
*END

*D_NET *41 0.00170038
*CONN
*I *234:A2 I *D sky130_fd_sc_hd__a21o_1
*I *232:X O *D sky130_fd_sc_hd__o21a_1
*CAP
1 *234:A2 0
2 *232:X 0.00036439
3 *41:10 0.00036439
4 *41:10 *42:8 7.76364e-06
5 *41:10 *79:38 0.000153677
6 *41:10 *82:73 1.47563e-05
7 *41:10 *92:10 0.000168744
8 *32:25 *41:10 2.64616e-05
9 *35:69 *41:10 0.000348465
10 *35:71 *41:10 0.000246748
11 *39:34 *41:10 4.98718e-06
12 *40:8 *41:10 0
*RES
1 *232:X *41:10 46.5136 
2 *41:10 *234:A2 38 
*END

*D_NET *42 0.000920885
*CONN
*I *234:B1 I *D sky130_fd_sc_hd__a21o_1
*I *233:X O *D sky130_fd_sc_hd__a22o_1
*CAP
1 *234:B1 0.000147732
2 *233:X 8.04784e-05
3 *42:8 0.00022821
4 *234:B1 *301:A 5.79559e-05
5 *234:B1 *82:73 5.50049e-05
6 *234:B1 *92:10 2.4754e-05
7 *42:8 *82:73 0.000108681
8 *227:B1 *234:B1 2.93845e-05
9 *234:A1 *234:B1 1.03836e-05
10 *292:A *234:B1 0.000107175
11 *40:8 *42:8 6.33614e-05
12 *41:10 *42:8 7.76364e-06
*RES
1 *233:X *42:8 39.9057 
2 *42:8 *234:B1 41.6457 
*END

*D_NET *43 0.00132088
*CONN
*I *248:A1 I *D sky130_fd_sc_hd__o31ai_2
*I *237:A I *D sky130_fd_sc_hd__nand2_1
*I *238:A I *D sky130_fd_sc_hd__or2_1
*I *235:X O *D sky130_fd_sc_hd__o21a_1
*CAP
1 *248:A1 0
2 *237:A 2.12412e-05
3 *238:A 6.7431e-05
4 *235:X 0
5 *43:30 0.000151283
6 *43:8 0.000307505
7 *43:4 0.000370116
8 *237:A *238:B 1.09903e-05
9 *237:A *44:17 5.12055e-06
10 *238:A *44:6 5.70419e-05
11 *238:A *44:17 3.22879e-05
12 *43:8 *44:17 4.19743e-05
13 *43:8 *44:34 9.58714e-05
14 *43:30 *44:34 0
15 *43:30 *49:10 3.36312e-06
16 *43:30 *84:52 0
17 *43:30 *84:72 5.56356e-05
18 *3:13 *43:30 3.67805e-05
19 *36:32 *43:8 6.42367e-05
*RES
1 *235:X *43:4 23 
2 *43:4 *43:8 4.45357 
3 *43:8 *238:A 24.5743 
4 *43:8 *237:A 23.4971 
5 *43:4 *43:30 32.5271 
6 *43:30 *248:A1 23 
*END

*D_NET *44 0.00267879
*CONN
*I *248:A2 I *D sky130_fd_sc_hd__o31ai_2
*I *237:B I *D sky130_fd_sc_hd__nand2_1
*I *238:B I *D sky130_fd_sc_hd__or2_1
*I *236:X O *D sky130_fd_sc_hd__xor2_1
*CAP
1 *248:A2 0
2 *237:B 0
3 *238:B 1.72574e-05
4 *236:X 0.000240488
5 *44:34 0.000245595
6 *44:17 0.000280701
7 *44:6 0.000292852
8 *44:6 *46:12 0.00014196
9 *44:6 *87:43 5.67058e-05
10 *44:6 *87:64 0.000301719
11 *44:34 *84:52 0.000162954
12 *44:34 *84:72 7.87243e-05
13 *237:A *238:B 1.09903e-05
14 *237:A *44:17 5.12055e-06
15 *238:A *44:6 5.70419e-05
16 *238:A *44:17 3.22879e-05
17 *3:13 *44:34 0
18 *36:32 *44:6 0.000441076
19 *36:32 *44:17 0.000130423
20 *36:32 *44:34 4.5051e-05
21 *43:8 *44:17 4.19743e-05
22 *43:8 *44:34 9.58714e-05
23 *43:30 *44:34 0
*RES
1 *236:X *44:6 31.2443 
2 *44:6 *238:B 23.4971 
3 *44:6 *44:17 2.07143 
4 *44:17 *237:B 23 
5 *44:17 *44:34 35.4271 
6 *44:34 *248:A2 23 
*END

*D_NET *45 0.000805535
*CONN
*I *240:A2 I *D sky130_fd_sc_hd__a31o_1
*I *237:Y O *D sky130_fd_sc_hd__nand2_1
*CAP
1 *240:A2 0.000170744
2 *237:Y 8.62996e-05
3 *45:8 0.000257044
4 *240:A2 *278:RESET_B 0.000164354
5 *45:8 *82:29 0
6 *45:8 *84:52 7.03869e-05
7 *240:A1 *240:A2 5.67058e-05
*RES
1 *237:Y *45:8 39.9057 
2 *45:8 *240:A2 41.9564 
*END

*D_NET *46 0.00160746
*CONN
*I *243:B1 I *D sky130_fd_sc_hd__o21ai_1
*I *240:A3 I *D sky130_fd_sc_hd__a31o_1
*I *238:X O *D sky130_fd_sc_hd__or2_1
*CAP
1 *243:B1 0
2 *240:A3 0
3 *238:X 0
4 *46:25 0.00036967
5 *46:12 0.000217292
6 *46:4 0.000586962
7 *46:12 *82:29 0
8 *46:12 *87:64 3.41998e-06
9 *46:25 *82:29 0.000219306
10 *46:25 *87:64 0
11 *240:A1 *46:12 5.61311e-05
12 *36:45 *46:12 1.27191e-05
13 *44:6 *46:12 0.00014196
*RES
1 *238:X *46:4 23 
2 *46:4 *46:12 34.5364 
3 *46:12 *240:A3 23 
4 *46:4 *46:25 36.9186 
5 *46:25 *243:B1 23 
*END

*D_NET *47 0.000741481
*CONN
*I *240:B1 I *D sky130_fd_sc_hd__a31o_1
*I *239:X O *D sky130_fd_sc_hd__a22o_1
*CAP
1 *240:B1 0
2 *239:X 0.000164431
3 *47:8 0.000164431
4 *47:8 *278:RESET_B 0
5 *47:8 *82:29 0.00035701
6 *26:10 *47:8 5.561e-05
*RES
1 *239:X *47:8 42.7229 
2 *47:8 *240:B1 38 
*END

*D_NET *48 0.0027062
*CONN
*I *242:A I *D sky130_fd_sc_hd__inv_2
*I *244:A1 I *D sky130_fd_sc_hd__o21ai_1
*I *245:A1 I *D sky130_fd_sc_hd__a21oi_1
*I *241:Y O *D sky130_fd_sc_hd__xnor2_1
*CAP
1 *242:A 0.000357573
2 *244:A1 5.77504e-05
3 *245:A1 0
4 *241:Y 4.07576e-05
5 *48:21 0.000644389
6 *48:12 0.000335806
7 *48:8 0.000147498
8 *242:A *247:A2 5.50049e-05
9 *242:A *247:B1_N 1.94812e-05
10 *242:A *49:10 2.45549e-06
11 *242:A *84:42 4.09995e-05
12 *242:A *87:64 0.000267556
13 *244:A1 *244:A2 5.50106e-05
14 *244:A1 *245:B1 0.000139357
15 *244:A1 *84:42 2.07791e-05
16 *244:A1 *87:64 1.24376e-05
17 *48:8 *52:8 8.62876e-05
18 *48:8 *84:10 4.334e-05
19 *48:12 *245:B1 9.84851e-05
20 *48:12 *82:16 1.57571e-05
21 *48:21 *244:A2 0
22 *48:21 *245:B1 0.000212168
23 *244:B1 *244:A1 5.3304e-05
*RES
1 *241:Y *48:8 39.2014 
2 *48:8 *48:12 16.5743 
3 *48:12 *245:A1 23 
4 *48:12 *48:21 3.85286 
5 *48:21 *244:A1 25.0507 
6 *48:21 *242:A 30.9543 
*END

*D_NET *49 0.000421022
*CONN
*I *248:A3 I *D sky130_fd_sc_hd__o31ai_2
*I *242:Y O *D sky130_fd_sc_hd__inv_2
*CAP
1 *248:A3 0
2 *242:Y 0.00016323
3 *49:10 0.00016323
4 *49:10 *84:46 7.03869e-05
5 *49:10 *84:52 1.83564e-05
6 *242:A *49:10 2.45549e-06
7 *43:30 *49:10 3.36312e-06
*RES
1 *242:Y *49:10 40.8793 
2 *49:10 *248:A3 38 
*END

*D_NET *50 0.000686105
*CONN
*I *245:A2 I *D sky130_fd_sc_hd__a21oi_1
*I *244:A2 I *D sky130_fd_sc_hd__o21ai_1
*I *243:Y O *D sky130_fd_sc_hd__o21ai_1
*CAP
1 *245:A2 0
2 *244:A2 5.62916e-05
3 *243:Y 0.000148279
4 *50:10 5.62916e-05
5 *50:8 0.000148279
6 *244:A2 *245:B1 2.02872e-05
7 *244:A2 *82:16 6.47194e-05
8 *244:A2 *84:42 2.4754e-05
9 *50:8 *52:8 2.11827e-05
10 *50:8 *82:16 6.16531e-05
11 *50:8 *84:10 0
12 *50:8 *84:12 0
13 *244:A1 *244:A2 5.50106e-05
14 *36:45 *50:8 2.93562e-05
15 *48:21 *244:A2 0
*RES
1 *243:Y *50:8 40.2579 
2 *50:8 *50:10 15 
3 *50:10 *244:A2 24.595 
4 *50:10 *245:A2 23 
*END

*D_NET *51 0.000710586
*CONN
*I *245:B1 I *D sky130_fd_sc_hd__a21oi_1
*I *244:Y O *D sky130_fd_sc_hd__o21ai_1
*CAP
1 *245:B1 8.78835e-05
2 *244:Y 8.78835e-05
3 *245:B1 *82:16 6.45221e-05
4 *244:A1 *245:B1 0.000139357
5 *244:A2 *245:B1 2.02872e-05
6 *48:12 *245:B1 9.84851e-05
7 *48:21 *245:B1 0.000212168
*RES
1 *244:Y *245:B1 49.48 
*END

*D_NET *52 0.00046287
*CONN
*I *246:C1 I *D sky130_fd_sc_hd__a221o_1
*I *245:Y O *D sky130_fd_sc_hd__a21oi_1
*CAP
1 *246:C1 0
2 *245:Y 0.000130804
3 *52:8 0.000130804
4 *52:8 *82:16 0
5 *52:8 *84:8 2.76611e-06
6 *52:8 *84:10 5.54361e-05
7 *35:47 *52:8 3.55887e-05
8 *48:8 *52:8 8.62876e-05
9 *50:8 *52:8 2.11827e-05
*RES
1 *245:Y *52:8 41.3143 
2 *52:8 *246:C1 38 
*END

*D_NET *53 0.000491577
*CONN
*I *248:B1 I *D sky130_fd_sc_hd__o31ai_2
*I *247:Y O *D sky130_fd_sc_hd__o21bai_1
*CAP
1 *248:B1 0
2 *247:Y 0.000133454
3 *53:10 0.000133454
4 *53:10 *82:29 0
5 *53:10 *84:42 5.50049e-05
6 *53:10 *84:46 0.000130424