*SPEF "ieee 1481-1999"
*DESIGN "counter"
*DATE "12:46:33 Wednesday December 04, 2024"
*VENDOR "The OpenROAD Project"
*PROGRAM "OpenROAD"
*VERSION "b16bda7e82721d10566ff7e2b68f1ff0be9f9e38"
*DESIGN_FLOW "NAME_SCOPE LOCAL" "PIN_CAP NONE"
*DIVIDER /
*DELIMITER :
*BUS_DELIMITER []
*T_UNIT 1 NS
*C_UNIT 1 PF
*R_UNIT 1 OHM
*L_UNIT 1 HENRY

*NAME_MAP
*3 clk
*4 count[0]
*5 count[1]
*6 count[2]
*7 count[3]
*8 count[4]
*9 count[5]
*10 count[6]
*11 count[7]
*12 data[0]
*13 data[1]
*14 data[2]
*15 data[3]
*16 data[4]
*17 data[5]
*18 data[6]
*19 data[7]
*20 enable
*21 preload
*22 resetn
*23 up_down
*24 _000_
*25 _001_
*26 _002_
*27 _003_
*28 _004_
*29 _005_
*30 _006_
*31 _007_
*32 _008_
*33 _009_
*34 _010_
*35 _011_
*36 _012_
*37 _013_
*38 _014_
*39 _015_
*40 _016_
*41 _017_
*42 _018_
*43 _019_
*44 _020_
*45 _021_
*46 _022_
*47 _023_
*48 _024_
*49 _025_
*50 _026_
*51 _027_
*52 _028_
*53 _029_
*54 _030_
*55 _031_
*56 _032_
*57 _033_
*58 _034_
*59 _035_
*60 _036_
*61 _037_
*62 _038_
*63 _039_
*64 _040_
*65 _041_
*66 _042_
*67 _043_
*68 _044_
*69 _045_
*70 _046_
*71 _047_
*72 _048_
*73 _049_
*74 _050_
*75 _051_
*76 _052_
*77 _053_
*78 clknet_0_clk
*79 clknet_1_0__leaf_clk
*80 clknet_1_1__leaf_clk
*81 net1
*82 net10
*83 net11
*84 net12
*85 net13
*86 net14
*87 net15
*88 net16
*89 net17
*90 net18
*91 net19
*92 net2
*93 net20
*94 net21
*95 net22
*96 net23
*97 net3
*98 net4
*99 net5
*100 net6
*101 net7
*102 net8
*103 net9
*104 FILLER_0_0_15
*105 FILLER_0_0_27
*106 FILLER_0_0_29
*107 FILLER_0_0_3
*108 FILLER_0_0_37
*109 FILLER_0_0_51
*110 FILLER_0_0_64
*111 FILLER_0_10_19
*112 FILLER_0_10_27
*113 FILLER_0_10_29
*114 FILLER_0_10_33
*115 FILLER_0_10_62
*116 FILLER_0_11_30
*117 FILLER_0_11_57
*118 FILLER_0_11_69
*119 FILLER_0_11_7
*120 FILLER_0_11_77
*121 FILLER_0_12_15
*122 FILLER_0_12_27
*123 FILLER_0_12_29
*124 FILLER_0_12_3
*125 FILLER_0_12_37
*126 FILLER_0_12_44
*127 FILLER_0_12_48
*128 FILLER_0_12_57
*129 FILLER_0_12_69
*130 FILLER_0_12_77
*131 FILLER_0_1_51
*132 FILLER_0_1_55
*133 FILLER_0_1_57
*134 FILLER_0_2_15
*135 FILLER_0_2_23
*136 FILLER_0_2_27
*137 FILLER_0_2_29
*138 FILLER_0_2_35
*139 FILLER_0_2_65
*140 FILLER_0_2_7
*141 FILLER_0_2_73
*142 FILLER_0_3_17
*143 FILLER_0_3_26
*144 FILLER_0_3_30
*145 FILLER_0_3_43
*146 FILLER_0_3_51
*147 FILLER_0_3_55
*148 FILLER_0_3_61
*149 FILLER_0_3_67
*150 FILLER_0_3_76
*151 FILLER_0_4_19
*152 FILLER_0_4_25
*153 FILLER_0_4_29
*154 FILLER_0_4_37
*155 FILLER_0_4_54
*156 FILLER_0_4_69
*157 FILLER_0_4_7
*158 FILLER_0_5_10
*159 FILLER_0_5_21
*160 FILLER_0_5_38
*161 FILLER_0_5_57
*162 FILLER_0_6_10
*163 FILLER_0_6_22
*164 FILLER_0_6_29
*165 FILLER_0_6_52
*166 FILLER_0_7_31
*167 FILLER_0_7_35
*168 FILLER_0_7_57
*169 FILLER_0_8_13
*170 FILLER_0_8_25
*171 FILLER_0_8_29
*172 FILLER_0_8_33
*173 FILLER_0_8_37
*174 FILLER_0_8_41
*175 FILLER_0_8_6
*176 FILLER_0_8_72
*177 FILLER_0_9_11
*178 FILLER_0_9_20
*179 FILLER_0_9_26
*180 FILLER_0_9_3
*181 FILLER_0_9_53
*182 FILLER_0_9_57
*183 FILLER_0_9_70
*184 FILLER_0_9_74
*185 PHY_EDGE_ROW_0_Left_13
*186 PHY_EDGE_ROW_0_Right_0
*187 PHY_EDGE_ROW_10_Left_23
*188 PHY_EDGE_ROW_10_Right_10
*189 PHY_EDGE_ROW_11_Left_24
*190 PHY_EDGE_ROW_11_Right_11
*191 PHY_EDGE_ROW_12_Left_25
*192 PHY_EDGE_ROW_12_Right_12
*193 PHY_EDGE_ROW_1_Left_14
*194 PHY_EDGE_ROW_1_Right_1
*195 PHY_EDGE_ROW_2_Left_15
*196 PHY_EDGE_ROW_2_Right_2
*197 PHY_EDGE_ROW_3_Left_16
*198 PHY_EDGE_ROW_3_Right_3
*199 PHY_EDGE_ROW_4_Left_17
*200 PHY_EDGE_ROW_4_Right_4
*201 PHY_EDGE_ROW_5_Left_18
*202 PHY_EDGE_ROW_5_Right_5
*203 PHY_EDGE_ROW_6_Left_19
*204 PHY_EDGE_ROW_6_Right_6
*205 PHY_EDGE_ROW_7_Left_20
*206 PHY_EDGE_ROW_7_Right_7
*207 PHY_EDGE_ROW_8_Left_21
*208 PHY_EDGE_ROW_8_Right_8
*209 PHY_EDGE_ROW_9_Left_22
*210 PHY_EDGE_ROW_9_Right_9
*211 TAP_TAPCELL_ROW_0_26
*212 TAP_TAPCELL_ROW_0_27
*213 TAP_TAPCELL_ROW_10_37
*214 TAP_TAPCELL_ROW_11_38
*215 TAP_TAPCELL_ROW_12_39
*216 TAP_TAPCELL_ROW_12_40
*217 TAP_TAPCELL_ROW_1_28
*218 TAP_TAPCELL_ROW_2_29
*219 TAP_TAPCELL_ROW_3_30
*220 TAP_TAPCELL_ROW_4_31
*221 TAP_TAPCELL_ROW_5_32
*222 TAP_TAPCELL_ROW_6_33
*223 TAP_TAPCELL_ROW_7_34
*224 TAP_TAPCELL_ROW_8_35
*225 TAP_TAPCELL_ROW_9_36
*226 _054_
*227 _055_
*228 _056_
*229 _057_
*230 _058_
*231 _059_
*232 _060_
*233 _061_
*234 _062_
*235 _063_
*236 _064_
*237 _065_
*238 _066_
*239 _067_
*240 _068_
*241 _069_
*242 _070_
*243 _071_
*244 _072_
*245 _073_
*246 _074_
*247 _075_
*248 _076_
*249 _077_
*250 _078_
*251 _079_
*252 _080_
*253 _081_
*254 _082_
*255 _083_
*256 _084_
*257 _085_
*258 _086_
*259 _087_
*260 _088_
*261 _089_
*262 _090_
*263 _091_
*264 _092_
*265 _093_
*266 _094_
*267 _095_
*268 _096_
*269 _097_
*270 _098_
*271 _099_
*272 _100_
*273 _101_
*274 _102_
*275 _103_
*276 _104_
*277 _105_
*278 _106_
*279 _107_
*280 _108_
*281 _109_
*282 _110_
*283 _111_
*284 _112_
*285 _113_
*286 _114_
*287 _115_
*288 clkbuf_0_clk
*289 clkbuf_1_0__f_clk
*290 clkbuf_1_1__f_clk
*291 clkload0
*292 fanout21
*293 hold1
*294 hold2
*295 input1
*296 input10
*297 input11
*298 input12
*299 input2
*300 input3
*301 input4
*302 input5
*303 input6
*304 input7
*305 input8
*306 input9
*307 output13
*308 output14
*309 output15
*310 output16
*311 output17
*312 output18
*313 output19
*314 output20

*PORTS
clk I
count[0] O
count[1] O
count[2] O
count[3] O
count[4] O
count[5] O
count[6] O
count[7] O
data[0] I
data[1] I
data[2] I
data[3] I
data[4] I
data[5] I
data[6] I
data[7] I
enable I
preload I
resetn I
up_down I

*D_NET *3 0.00432573
*CONN
*P clk I
*I *288:A I *D sky130_fd_sc_hd__clkbuf_16
*CAP
1 clk 0.00184077
2 *288:A 0.00184077
3 *288:A count[2] 3.14094e-05
4 *288:A count[3] 0
5 *288:A *239:B1 2.92538e-05
6 *288:A *255:A 4.03082e-05
7 *288:A *270:A2 0.000152134
8 *288:A *270:A3 8.70923e-05
9 *288:A *287:CLK 0
10 *288:A *289:A 0
11 *288:A *296:A 3.14094e-05
12 *288:A *55:12 4.87479e-05
13 *288:A *57:10 0.000138544
14 *288:A *80:16 8.52845e-05
15 *288:A *94:66 0
*RES
1 clk *288:A 15.5861 
*END

*D_NET *4 0.000989009
*CONN
*P count[0] O
*I *307:X O *D sky130_fd_sc_hd__buf_2
*CAP
1 count[0] 0.000416934
2 *307:X 0.000416934
3 count[0] *231:A2 2.37037e-05
4 count[0] *293:A 0.000131438
*RES
1 *307:X count[0] 5.8229 
*END

*D_NET *5 0.000857479
*CONN
*P count[1] O
*I *308:X O *D sky130_fd_sc_hd__buf_2
*CAP
1 count[1] 0.000398588
2 *308:X 0.000398588
3 count[1] *238:A1 4.99619e-05
4 count[1] *299:A 0
5 count[1] *35:88 1.03423e-05
*RES
1 *308:X count[1] 10.185 
*END

*D_NET *6 0.000590999
*CONN
*P count[2] O
*I *309:X O *D sky130_fd_sc_hd__buf_2
*CAP
1 count[2] 0.000279795
2 *309:X 0.000279795
3 *288:A count[2] 3.14094e-05
*RES
1 *309:X count[2] 7.1793 
*END

*D_NET *7 0.000475513
*CONN
*P count[3] O
*I *310:X O *D sky130_fd_sc_hd__buf_2
*CAP
1 count[3] 0.000188954
2 *310:X 0.000188954
3 count[3] *296:A 2.24901e-05
4 count[3] *301:A 4.66616e-05
5 count[3] *82:14 1.88656e-05
6 count[3] *88:16 9.58678e-06
7 *288:A count[3] 0
*RES
1 *310:X count[3] 4.90503 
*END

*D_NET *8 0.000576618
*CONN
*P count[4] O
*I *311:X O *D sky130_fd_sc_hd__buf_2
*CAP
1 count[4] 0.000217114
2 *311:X 0.000217114
3 count[4] count[5] 0
4 count[4] *302:A 0
5 count[4] *303:A 7.56675e-05
6 count[4] *306:A 6.67215e-05
7 count[4] *83:30 0
*RES
1 *311:X count[4] 5.86677 
*END

*D_NET *9 0.00048205
*CONN
*P count[5] O
*I *312:X O *D sky130_fd_sc_hd__buf_2
*CAP
1 count[5] 0.00020442
2 *312:X 0.00020442
3 count[5] *303:A 7.32103e-05
4 count[5] *82:43 0
5 count[4] count[5] 0
*RES
1 *312:X count[5] 5.35677 
*END

*D_NET *10 0.000966102
*CONN
*P count[6] O
*I *313:X O *D sky130_fd_sc_hd__clkbuf_4
*CAP
1 count[6] 0.000483051
2 *313:X 0.000483051
3 count[6] *304:A 0
*RES
1 *313:X count[6] 11.925 
*END

*D_NET *11 0.000545054
*CONN
*P count[7] O
*I *314:X O *D sky130_fd_sc_hd__buf_2
*CAP
1 count[7] 0.000220106
2 *314:X 0.000220106
3 count[7] *305:A 5.38666e-05
4 count[7] *82:31 9.58678e-06
5 count[7] *93:12 4.13879e-05
*RES
1 *314:X count[7] 5.16003 
*END

*D_NET *12 0.00217235
*CONN
*P data[0] I
*I *295:A I *D sky130_fd_sc_hd__clkbuf_1
*CAP
1 data[0] 0.000907629
2 *295:A 0.000907629
3 *295:A *227:A 5.53774e-05
4 *295:A *231:A2 5.0751e-05
5 *295:A *237:A1 0.000121884
6 *295:A *280:D 4.19884e-05
7 *295:A *32:12 0
8 *295:A *79:8 1.83847e-05
9 *295:A *82:121 6.28765e-05
10 *295:A *83:8 5.83121e-06
*RES
1 data[0] *295:A 19.74 
*END

*D_NET *13 0.00104096
*CONN
*P data[1] I
*I *299:A I *D sky130_fd_sc_hd__clkbuf_1
*CAP
1 data[1] 0.000452679
2 *299:A 0.000452679
3 *299:A *231:B1 1.37328e-05
4 *299:A *238:A1 4.82919e-05
5 *299:A *238:B1 7.35813e-05
6 count[1] *299:A 0
*RES
1 data[1] *299:A 11.7 
*END

*D_NET *14 0.00105604
*CONN
*P data[2] I
*I *300:A I *D sky130_fd_sc_hd__clkbuf_1
*CAP
1 data[2] 0.000423947
2 *300:A 0.000423947
3 *300:A *243:A2 1.83847e-05
4 *300:A *243:B1 0
5 *300:A *35:75 8.53113e-06
6 *300:A *35:88 0.0001249
7 *300:A *82:111 1.94636e-05
8 *300:A *82:121 3.68682e-05
*RES
1 data[2] *300:A 11.655 
*END

*D_NET *15 0.000985867
*CONN
*P data[3] I
*I *301:A I *D sky130_fd_sc_hd__clkbuf_1
*CAP
1 data[3] 0.000413277
2 *301:A 0.000413277
3 *301:A *250:A2 4.66742e-05
4 *301:A *298:A 3.14094e-05
5 *301:A *305:A 0
6 *301:A *35:75 3.45679e-05
7 *301:A *82:14 0
8 count[3] *301:A 4.66616e-05
*RES
1 data[3] *301:A 10.0587 
*END

*D_NET *16 0.000637166
*CONN
*P data[4] I
*I *302:A I *D sky130_fd_sc_hd__clkbuf_1
*CAP
1 data[4] 0.000242199
2 *302:A 0.000242199
3 *302:A *293:A 0
4 *302:A *306:A 0.000106069
5 *302:A *83:17 4.66991e-05
6 count[4] *302:A 0
*RES
1 data[4] *302:A 5.7283 
*END

*D_NET *17 0.000600834
*CONN
*P data[5] I
*I *303:A I *D sky130_fd_sc_hd__clkbuf_1
*CAP
1 data[5] 0.000225978
2 *303:A 0.000225978
3 *303:A *258:B1 0
4 *303:A *35:25 0
5 count[4] *303:A 7.56675e-05
6 count[5] *303:A 7.32103e-05
*RES
1 data[5] *303:A 6.5735 
*END

*D_NET *18 0.000990807
*CONN
*P data[6] I
*I *304:A I *D sky130_fd_sc_hd__clkbuf_1
*CAP
1 data[6] 0.000495404
2 *304:A 0.000495404
3 count[6] *304:A 0
*RES
1 data[6] *304:A 12.135 
*END

*D_NET *19 0.00136714
*CONN
*P data[7] I
*I *305:A I *D sky130_fd_sc_hd__clkbuf_1
*CAP
1 data[7] 0.000537725
2 *305:A 0.000537725
3 *305:A *276:A 0.000117116
4 *305:A *276:B 3.6452e-05
5 *305:A *277:B 1.47347e-05
6 *305:A *287:RESET_B 4.70343e-05
7 *305:A *298:A 2.24901e-05
8 *305:A *82:18 0
9 *305:A *82:31 0
10 count[7] *305:A 5.38666e-05
11 *301:A *305:A 0
*RES
1 data[7] *305:A 14.297 
*END

*D_NET *20 0.000846333
*CONN
*P enable I
*I *306:A I *D sky130_fd_sc_hd__buf_1
*CAP
1 enable 0.000306361
2 *306:A 0.000306361
3 *306:A *83:17 0
4 *306:A *83:30 0
5 *306:A *89:14 6.08203e-05
6 count[4] *306:A 6.67215e-05
7 *302:A *306:A 0.000106069
*RES
1 enable *306:A 8.1035 
*END

*D_NET *21 0.000573289
*CONN
*P preload I
*I *296:A I *D sky130_fd_sc_hd__buf_2
*CAP
1 preload 0.000256779
2 *296:A 0.000256779
3 *296:A *82:14 5.83121e-06
4 count[3] *296:A 2.24901e-05
5 *288:A *296:A 3.14094e-05
*RES
1 preload *296:A 7.0893 
*END

*D_NET *22 0.00123025
*CONN
*P resetn I
*I *293:A I *D sky130_fd_sc_hd__dlygate4sd3_1
*CAP
1 resetn 0.000484696
2 *293:A 0.000484696
3 *293:A *231:A2 0
4 *293:A *232:B1 0
5 *293:A *280:RESET_B 0.000129418
6 *293:A *85:14 0
7 count[0] *293:A 0.000131438
8 *302:A *293:A 0
*RES
1 resetn *293:A 8.7081 
*END

*D_NET *23 0.00053572
*CONN
*P up_down I
*I *298:A I *D sky130_fd_sc_hd__buf_1
*CAP
1 up_down 0.00024091
2 *298:A 0.00024091
3 *301:A *298:A 3.14094e-05
4 *305:A *298:A 2.24901e-05
*RES
1 up_down *298:A 6.8343 
*END

*D_NET *24 0.000553438
*CONN
*I *280:D I *D sky130_fd_sc_hd__dfrtp_1
*I *232:Y O *D sky130_fd_sc_hd__a21oi_1
*CAP
1 *280:D 0.000166459
2 *232:Y 0.000166459
3 *280:D *232:A1 1.83756e-05
4 *280:D *232:B1 0.000151624
5 *280:D *237:A1 8.53113e-06
6 *280:D *36:33 0
7 *295:A *280:D 4.19884e-05
*RES
1 *232:Y *280:D 10.815 
*END

*D_NET *25 0.000465613
*CONN
*I *281:D I *D sky130_fd_sc_hd__dfrtp_1
*I *238:X O *D sky130_fd_sc_hd__a21o_1
*CAP
1 *281:D 0.00010189
2 *238:X 0.00010189
3 *281:D *238:A1 6.47516e-05
4 *281:D *308:A 0.000112409
5 *281:D *35:88 8.46717e-05
*RES
1 *238:X *281:D 9.375 
*END

*D_NET *26 0.000528533
*CONN
*I *282:D I *D sky130_fd_sc_hd__dfrtp_2
*I *244:X O *D sky130_fd_sc_hd__a31o_1
*CAP
1 *282:D 0.000191291
2 *244:X 0.000191291
3 *282:D *244:B1 9.30717e-05
4 *282:D *36:46 2.65814e-06
5 *282:D *82:111 5.02217e-05
*RES
1 *244:X *282:D 9.81 
*END

*D_NET *27 0.00133824
*CONN
*I *283:D I *D sky130_fd_sc_hd__dfrtp_1
*I *250:X O *D sky130_fd_sc_hd__a221o_1
*CAP
1 *283:D 0.000485586
2 *250:X 0.000485586
3 *283:D *250:A2 1.2818e-05
4 *283:D *250:B2 1.12643e-05
5 *283:D *250:C1 0.000151471
6 *283:D *35:61 1.34503e-05
7 *283:D *82:14 6.28477e-05
8 *283:D *88:6 4.80285e-05
9 *283:D *88:12 6.71882e-05
*RES
1 *250:X *283:D 11.945 
*END

*D_NET *28 0.000695644
*CONN
*I *284:D I *D sky130_fd_sc_hd__dfrtp_1
*I *259:X O *D sky130_fd_sc_hd__a31o_1
*CAP
1 *284:D 0.000238262
2 *259:X 0.000238262
3 *284:D *259:A2 1.47256e-05
4 *284:D *259:B1 3.00381e-05
5 *284:D *265:A1 4.40643e-05
6 *284:D *274:A1 0
7 *284:D *36:14 7.9601e-06
8 *284:D *36:25 0.000122331
*RES
1 *259:X *284:D 10.755 
*END

*D_NET *29 0.000289924
*CONN
*I *285:D I *D sky130_fd_sc_hd__dfrtp_1
*I *265:X O *D sky130_fd_sc_hd__a31o_1
*CAP
1 *285:D 0.000103346
2 *265:X 0.000103346
3 *285:D *265:A2 6.28765e-05
4 *285:D *274:A1 0
5 *285:D *80:12 2.97004e-06
6 *285:D *89:29 1.7386e-05
*RES
1 *265:X *285:D 9.03 
*END

*D_NET *30 0.00177399
*CONN
*I *286:D I *D sky130_fd_sc_hd__dfrtp_1
*I *274:X O *D sky130_fd_sc_hd__a31o_1
*CAP
1 *286:D 0.000433983
2 *274:X 0.000433983
3 *286:D *263:B 4.39911e-06
4 *286:D *274:A1 0.000450046
5 *286:D *274:B1 0.000198046
6 *286:D *286:CLK 8.3303e-06
7 *286:D *312:A 0
8 *286:D *80:8 0.000245206
*RES
1 *274:X *286:D 15.51 
*END

*D_NET *31 0.00133277
*CONN
*I *287:D I *D sky130_fd_sc_hd__dfrtp_1
*I *279:X O *D sky130_fd_sc_hd__a21o_1
*CAP
1 *287:D 0.000412859
2 *279:X 0.000412859
3 *287:D *287:CLK 0
4 *287:D *35:53 0.000507048
*RES
1 *279:X *287:D 13.17 
*END

*D_NET *32 0.00266369
*CONN
*I *231:B2 I *D sky130_fd_sc_hd__a22o_1
*I *239:A1 I *D sky130_fd_sc_hd__o21a_1
*I *236:A1 I *D sky130_fd_sc_hd__o21a_1
*I *235:A I *D sky130_fd_sc_hd__nand2_1
*I *226:Y O *D sky130_fd_sc_hd__inv_2
*CAP
1 *231:B2 4.39947e-05
2 *239:A1 0.000191079
3 *236:A1 0
4 *235:A 1.66885e-05
5 *226:Y 0
6 *32:16 0.000178303
7 *32:12 0.000750713
8 *32:4 0.000442014
9 *231:B2 *226:A 5.84828e-05
10 *231:B2 *231:B1 0.000131986
11 *235:A *235:B 4.99619e-05
12 *239:A1 *239:A2 0.000298442
13 *239:A1 *36:27 0
14 *239:A1 *36:33 0
15 *239:A1 *79:12 3.9442e-05
16 *239:A1 *79:43 1.07797e-05
17 *32:12 *237:A2 0
18 *32:12 *238:A2 0
19 *32:12 *238:B1 0
20 *32:12 *36:33 0.000140145
21 *32:16 *235:B 2.58604e-05
22 *32:16 *236:B1 4.00541e-06
23 *32:16 *238:A2 0.000120916
24 *32:16 *36:33 0.000135048
25 *32:16 *36:46 2.58336e-05
26 *295:A *32:12 0
*RES
1 *226:Y *32:4 1.6 
2 *32:4 *32:12 10.36 
3 *32:12 *32:16 3.57 
4 *32:16 *235:A 2.05 
5 *32:16 *236:A1 1.6 
6 *32:12 *239:A1 10.04 
7 *32:4 *231:B2 3.1 
*END

*D_NET *33 0.00104635
*CONN
*I *231:A2 I *D sky130_fd_sc_hd__a22o_1
*I *227:Y O *D sky130_fd_sc_hd__inv_2
*CAP
1 *231:A2 0.000332987
2 *227:Y 0.000332987
3 *231:A2 *226:A 0.000163199
4 *231:A2 *232:B1 0.000142719
5 *231:A2 *237:A1 0
6 *231:A2 *82:121 0
7 count[0] *231:A2 2.37037e-05
8 *293:A *231:A2 0
9 *295:A *231:A2 5.0751e-05
*RES
1 *227:Y *231:A2 13.5 
*END

*D_NET *34 0.000363236
*CONN
*I *247:A2 I *D sky130_fd_sc_hd__o21ai_1
*I *228:Y O *D sky130_fd_sc_hd__inv_2
*CAP
1 *247:A2 2.37321e-05
2 *228:Y 2.37321e-05
3 *247:A2 *247:B1 8.65905e-05
4 *247:A2 *44:12 0.000163199
5 *247:A2 *87:43 6.59822e-05
*RES
1 *228:Y *247:A2 4.685 
*END

*D_NET *35 0.0158876
*CONN
*I *264:B1 I *D sky130_fd_sc_hd__a22o_1
*I *273:B1 I *D sky130_fd_sc_hd__a22o_1
*I *278:B1 I *D sky130_fd_sc_hd__a22o_1
*I *250:B1 I *D sky130_fd_sc_hd__a221o_1
*I *231:B1 I *D sky130_fd_sc_hd__a22o_1
*I *237:B1 I *D sky130_fd_sc_hd__a22o_1
*I *243:B1 I *D sky130_fd_sc_hd__a22o_1
*I *258:B1 I *D sky130_fd_sc_hd__a22o_1
*I *229:Y O *D sky130_fd_sc_hd__nor2_2
*CAP
1 *264:B1 0
2 *273:B1 0.00034453
3 *278:B1 0
4 *250:B1 0
5 *231:B1 0.000399245
6 *237:B1 0.00014678
7 *243:B1 7.9319e-05
8 *258:B1 0.000134583
9 *229:Y 3.84549e-05
10 *35:88 0.001039
11 *35:75 0.00168713
12 *35:61 0.00140067
13 *35:53 0.00088325
14 *35:43 0.00149036
15 *35:25 0.000724061
16 *35:8 0.000348686
17 *231:B1 *226:A 2.8185e-05
18 *231:B1 *237:A2 8.65905e-05
19 *231:B1 *238:B1 0.000187008
20 *237:B1 *238:A2 5.53883e-05
21 *237:B1 *280:CLK 1.08758e-05
22 *237:B1 *79:12 5.04569e-05
23 *237:B1 *79:14 1.91597e-05
24 *243:B1 *243:A2 2.65239e-05
25 *243:B1 *244:B1 2.16833e-05
26 *258:B1 *229:B 0.000362271
27 *258:B1 *82:45 2.03321e-05
28 *258:B1 *83:30 0.000252282
29 *273:B1 *273:A1 6.69608e-06
30 *273:B1 *273:B2 8.52883e-05
31 *273:B1 *274:A2 0.000162777
32 *273:B1 *287:CLK 0
33 *273:B1 *313:A 2.14129e-05
34 *273:B1 *82:31 2.75252e-05
35 *273:B1 *91:30 0.000139238
36 *35:25 *264:A1 2.30292e-05
37 *35:25 *264:A2 0.000160635
38 *35:25 *265:B1 9.27495e-05
39 *35:25 *82:45 5.00612e-05
40 *35:25 *90:40 4.59896e-06
41 *35:43 *274:A2 0.000326636
42 *35:43 *290:A 0.000183103
43 *35:43 *312:A 0.000162022
44 *35:43 *68:14 0.000122435
45 *35:43 *70:28 3.55006e-05
46 *35:43 *70:34 6.20949e-05
47 *35:43 *82:43 0.000535769
48 *35:43 *82:45 1.43521e-05
49 *35:53 *276:B 1.34361e-05
50 *35:53 *278:A2 3.23663e-05
51 *35:53 *279:A1 1.4399e-05
52 *35:53 *279:A2 2.75145e-05
53 *35:53 *279:B1 0.000197988
54 *35:53 *82:18 9.50342e-06
55 *35:53 *82:31 9.06521e-05
56 *35:53 *93:12 4.58406e-05
57 *35:61 *250:C1 1.37328e-05
58 *35:61 *276:B 8.97564e-05
59 *35:61 *82:14 4.82863e-05
60 *35:61 *82:18 0.000448214
61 *35:75 *244:B1 0.000296081
62 *35:75 *246:A 6.65717e-05
63 *35:75 *250:A2 3.57768e-05
64 *35:75 *250:B2 4.13249e-05
65 *35:75 *250:C1 8.86106e-05
66 *35:75 *252:A1 0.000240418
67 *35:75 *36:58 0.000154542
68 *35:75 *43:12 0.000115046
69 *35:75 *82:14 0
70 *35:75 *82:18 8.53113e-06
71 *35:75 *82:111 2.50049e-05
72 *35:75 *86:18 0
73 *35:75 *88:12 0.000136877
74 *35:75 *88:16 5.56629e-05
75 *35:75 *94:8 0
76 *35:75 *94:10 0
77 *35:75 *94:41 0.000421961
78 *35:88 *238:A1 8.26118e-05
79 *35:88 *238:B1 4.89295e-05
80 *35:88 *243:A2 7.67415e-06
81 *35:88 *244:B1 4.82919e-05
82 count[1] *35:88 1.03423e-05
83 *231:B2 *231:B1 0.000131986
84 *281:D *35:88 8.46717e-05
85 *283:D *35:61 1.34503e-05
86 *287:D *35:53 0.000507048
87 *299:A *231:B1 1.37328e-05
88 *300:A *243:B1 0
89 *300:A *35:75 8.53113e-06
90 *300:A *35:88 0.0001249
91 *301:A *35:75 3.45679e-05
92 *303:A *258:B1 0
93 *303:A *35:25 0
*RES
1 *229:Y *35:8 4.05 
2 *35:8 *258:B1 8.295 
3 *35:8 *35:25 6.17 
4 *35:25 *35:43 17.725 
5 *35:43 *35:53 13.7 
6 *35:53 *35:61 8.36 
7 *35:61 *35:75 28.025 
8 *35:75 *243:B1 3.1 
9 *35:75 *35:88 8.4 
10 *35:88 *237:B1 7.94 
11 *35:88 *231:B1 8.125 
12 *35:61 *250:B1 1.6 
13 *35:53 *278:B1 3.6 
14 *35:43 *273:B1 11.51 
15 *35:25 *264:B1 1.6 
*END

*D_NET *36 0.00968209
*CONN
*I *265:A1 I *D sky130_fd_sc_hd__a31o_1
*I *274:A1 I *D sky130_fd_sc_hd__a31o_1
*I *232:A2 I *D sky130_fd_sc_hd__a21oi_1
*I *244:A1 I *D sky130_fd_sc_hd__a31o_1
*I *279:A1 I *D sky130_fd_sc_hd__a21o_1
*I *248:B1 I *D sky130_fd_sc_hd__o21ai_1
*I *236:B1 I *D sky130_fd_sc_hd__o21a_1
*I *259:A1 I *D sky130_fd_sc_hd__a31o_1
*I *230:X O *D sky130_fd_sc_hd__and2b_2
*CAP
1 *265:A1 0.000122926
2 *274:A1 0.000825297
3 *232:A2 3.37454e-05
4 *244:A1 0
5 *279:A1 0.000447229
6 *248:B1 0
7 *236:B1 1.92442e-05
8 *259:A1 0
9 *230:X 0
10 *36:58 0.00076653
11 *36:46 0.000863599
12 *36:33 0.00082653
13 *36:27 0.000431685
14 *36:25 0.00101049
15 *36:14 0.000278582
16 *36:6 0.000351266
17 *265:A1 *230:A_N 0
18 *265:A1 *259:B1 0.000104218
19 *265:A1 *265:A2 9.50342e-06
20 *265:A1 *82:47 0
21 *274:A1 *254:A_N 0
22 *274:A1 *259:A3 9.14049e-05
23 *274:A1 *262:B 0
24 *274:A1 *265:A2 0
25 *274:A1 *273:A2 0
26 *274:A1 *274:A2 0
27 *274:A1 *274:B1 3.00381e-05
28 *274:A1 *290:A 0
29 *274:A1 *62:10 0
30 *274:A1 *80:8 2.13396e-05
31 *274:A1 *80:12 0.00011398
32 *274:A1 *90:25 0
33 *279:A1 *246:A 1.22676e-05
34 *279:A1 *250:C1 0
35 *279:A1 *279:A2 2.66935e-05
36 *279:A1 *282:RESET_B 0.000371132
37 *279:A1 *287:RESET_B 0.000362972
38 *279:A1 *83:44 0.000116151
39 *36:14 *259:A3 0
40 *36:14 *259:B1 5.07419e-05
41 *36:14 *83:17 0
42 *36:25 *259:A2 5.05521e-05
43 *36:27 *232:B1 0
44 *36:27 *259:A3 3.09164e-05
45 *36:27 *284:CLK 0
46 *36:33 *232:B1 0
47 *36:33 *239:A2 7.74817e-05
48 *36:33 *79:8 0.00038879
49 *36:46 *235:B 0.000161893
50 *36:46 *239:A2 8.52883e-05
51 *36:58 *244:A2 0.000118513
52 *36:58 *244:A3 2.15594e-05
53 *36:58 *246:A 0.000177753
54 *36:58 *250:C1 0
55 *36:58 *251:A1 9.95272e-05
56 *36:58 *282:RESET_B 2.9282e-05
57 *36:58 *82:111 5.19313e-05
58 *239:A1 *36:27 0
59 *239:A1 *36:33 0
60 *280:D *36:33 0
61 *282:D *36:46 2.65814e-06
62 *284:D *265:A1 4.40643e-05
63 *284:D *274:A1 0
64 *284:D *36:14 7.9601e-06
65 *284:D *36:25 0.000122331
66 *285:D *274:A1 0
67 *286:D *274:A1 0.000450046
68 *32:12 *36:33 0.000140145
69 *32:16 *236:B1 4.00541e-06
70 *32:16 *36:33 0.000135048
71 *32:16 *36:46 2.58336e-05
72 *35:53 *279:A1 1.4399e-05
73 *35:75 *36:58 0.000154542
*RES
1 *230:X *36:6 3.6 
2 *36:6 *36:14 5.735 
3 *36:14 *259:A1 1.6 
4 *36:14 *36:25 3.5 
5 *36:25 *36:27 2.4 
6 *36:27 *36:33 9.08 
7 *36:33 *236:B1 1.96 
8 *36:33 *36:46 8.415 
9 *36:46 *36:58 9.77 
10 *36:58 *248:B1 3.6 
11 *36:58 *279:A1 13.845 
12 *36:46 *244:A1 1.6 
13 *36:27 *232:A2 4.05 
14 *36:25 *274:A1 18.87 
15 *36:6 *265:A1 7.47 
*END

*D_NET *37 0.00113006
*CONN
*I *232:B1 I *D sky130_fd_sc_hd__a21oi_1
*I *231:X O *D sky130_fd_sc_hd__a22o_1
*CAP
1 *232:B1 0.000323212
2 *231:X 0.000323212
3 *232:B1 *232:A1 0.000124895
4 *232:B1 *237:A1 6.43964e-05
5 *232:B1 *280:RESET_B 0
6 *232:B1 *83:17 0
7 *231:A2 *232:B1 0.000142719
8 *280:D *232:B1 0.000151624
9 *293:A *232:B1 0
10 *36:27 *232:B1 0
11 *36:33 *232:B1 0
*RES
1 *231:X *232:B1 14.31 
*END

*D_NET *38 0.000903209
*CONN
*I *239:B1 I *D sky130_fd_sc_hd__o21a_1
*I *233:Y O *D sky130_fd_sc_hd__nand2b_1
*CAP
1 *239:B1 0.000205153
2 *233:Y 0.000205153
3 *239:B1 *256:B 7.08493e-05
4 *239:B1 *43:8 0.000308622
5 *239:B1 *57:10 3.61283e-05
6 *239:B1 *94:66 4.80505e-05
7 *288:A *239:B1 2.92538e-05
*RES
1 *233:Y *239:B1 12.24 
*END

*D_NET *39 0.00223916
*CONN
*I *239:A2 I *D sky130_fd_sc_hd__o21a_1
*I *236:A2 I *D sky130_fd_sc_hd__o21a_1
*I *235:B I *D sky130_fd_sc_hd__nand2_1
*I *234:X O *D sky130_fd_sc_hd__xor2_1
*CAP
1 *239:A2 0.000260435
2 *236:A2 0
3 *235:B 0.000113753
4 *234:X 0.000174251
5 *39:25 0.000260435
6 *39:10 0.000288003
7 *239:A2 *284:CLK 0.000166346
8 *239:A2 *79:8 4.82919e-05
9 *239:A2 *79:43 0.000141599
10 *39:10 *234:A 1.34503e-05
11 *39:10 *234:B 7.36727e-05
12 *235:A *235:B 4.99619e-05
13 *239:A1 *239:A2 0.000298442
14 *32:16 *235:B 2.58604e-05
15 *36:33 *239:A2 7.74817e-05
16 *36:46 *235:B 0.000161893
17 *36:46 *239:A2 8.52883e-05
*RES
1 *234:X *39:10 5.955 
2 *39:10 *235:B 6.06 
3 *39:10 *39:25 2 
4 *39:25 *236:A2 1.6 
5 *39:25 *239:A2 11.54 
*END

*D_NET *40 0.00114892
*CONN
*I *238:A1 I *D sky130_fd_sc_hd__a21o_1
*I *235:Y O *D sky130_fd_sc_hd__nand2_1
*CAP
1 *238:A1 0.000416785
2 *235:Y 0.000416785
3 *238:A1 *238:B1 1.3763e-05
4 *238:A1 *308:A 5.59675e-05
5 *238:A1 *79:12 0
6 count[1] *238:A1 4.99619e-05
7 *281:D *238:A1 6.47516e-05
8 *299:A *238:A1 4.82919e-05
9 *35:88 *238:A1 8.26118e-05
*RES
1 *235:Y *238:A1 14.46 
*END

*D_NET *41 0.000962396
*CONN
*I *238:A2 I *D sky130_fd_sc_hd__a21o_1
*I *236:X O *D sky130_fd_sc_hd__o21a_1
*CAP
1 *238:A2 0.000235794
2 *236:X 0.000235794
3 *238:A2 *237:A2 0.000140912
4 *238:A2 *238:B1 1.53032e-05
5 *238:A2 *79:12 0.00015829
6 *237:B1 *238:A2 5.53883e-05
7 *32:12 *238:A2 0
8 *32:16 *238:A2 0.000120916
*RES
1 *236:X *238:A2 12.015 
*END

*D_NET *42 0.00071507
*CONN
*I *238:B1 I *D sky130_fd_sc_hd__a21o_1
*I *237:X O *D sky130_fd_sc_hd__a22o_1
*CAP
1 *238:B1 0.000168912
2 *237:X 0.000168912
3 *238:B1 *237:A2 3.86607e-05
4 *231:B1 *238:B1 0.000187008
5 *238:A1 *238:B1 1.3763e-05
6 *238:A2 *238:B1 1.53032e-05
7 *299:A *238:B1 7.35813e-05
8 *32:12 *238:B1 0
9 *35:88 *238:B1 4.89295e-05
*RES
1 *237:X *238:B1 11.115 
*END

*D_NET *43 0.00257928
*CONN
*I *252:A1 I *D sky130_fd_sc_hd__o31ai_2
*I *242:A I *D sky130_fd_sc_hd__or2_1
*I *241:A I *D sky130_fd_sc_hd__nand2_1
*I *239:X O *D sky130_fd_sc_hd__o21a_1
*CAP
1 *252:A1 7.15871e-05
2 *242:A 9.1553e-05
3 *241:A 0
4 *239:X 0.000591671
5 *43:12 0.00015022
6 *43:8 0.000721925
7 *242:A *242:B 9.03508e-06
8 *242:A *44:12 2.8185e-05
9 *242:A *44:23 3.23976e-05
10 *252:A1 *252:A2 0.000140844
11 *43:8 *252:A3 1.86482e-05
12 *43:12 *252:A2 5.91322e-05
13 *239:B1 *43:8 0.000308622
14 *35:75 *252:A1 0.000240418
15 *35:75 *43:12 0.000115046
*RES
1 *239:X *43:8 10.605 
2 *43:8 *43:12 3.38 
3 *43:12 *241:A 1.6 
4 *43:12 *242:A 3.1 
5 *43:8 *252:A1 6.51 
*END

*D_NET *44 0.00196562
*CONN
*I *241:B I *D sky130_fd_sc_hd__nand2_1
*I *252:A2 I *D sky130_fd_sc_hd__o31ai_2
*I *242:B I *D sky130_fd_sc_hd__or2_1
*I *240:X O *D sky130_fd_sc_hd__xor2_1
*CAP
1 *241:B 0
2 *252:A2 0.000176109
3 *242:B 1.47259e-05
4 *240:X 0.000336277
5 *44:23 0.000238338
6 *44:12 0.000413231
7 *252:A2 *252:A3 7.63125e-05
8 *252:A2 *94:66 0
9 *44:12 *244:A2 0.000120655
10 *44:12 *247:B1 6.64017e-05
11 *44:12 *87:43 4.60584e-05
12 *44:23 *233:A_N 0
13 *44:23 *244:A2 4.47209e-05
14 *242:A *242:B 9.03508e-06
15 *242:A *44:12 2.8185e-05
16 *242:A *44:23 3.23976e-05
17 *247:A2 *44:12 0.000163199
18 *252:A1 *252:A2 0.000140844
19 *43:12 *252:A2 5.91322e-05
*RES
1 *240:X *44:12 7.015 
2 *44:12 *242:B 1.96 
3 *44:12 *44:23 1.5 
4 *44:23 *252:A2 9.785 
5 *44:23 *241:B 1.6 
*END

*D_NET *45 0.0007432
*CONN
*I *244:A2 I *D sky130_fd_sc_hd__a31o_1
*I *241:Y O *D sky130_fd_sc_hd__nand2_1
*CAP
1 *244:A2 0.000170399
2 *241:Y 0.000170399
3 *244:A2 *244:A3 0.000118513
4 *36:58 *244:A2 0.000118513
5 *44:12 *244:A2 0.000120655
6 *44:23 *244:A2 4.47209e-05
*RES
1 *241:Y *244:A2 10.41 
*END

*D_NET *46 0.000826444
*CONN
*I *244:A3 I *D sky130_fd_sc_hd__a31o_1
*I *247:B1 I *D sky130_fd_sc_hd__o21ai_1
*I *242:X O *D sky130_fd_sc_hd__or2_1
*CAP
1 *244:A3 6.16853e-05
2 *247:B1 6.18422e-05
3 *242:X 0
4 *46:4 0.000123527
5 *244:A3 *82:111 0.000162318
6 *247:B1 *87:43 0.000124007
7 *244:A2 *244:A3 0.000118513
8 *247:A2 *247:B1 8.65905e-05
9 *36:58 *244:A3 2.15594e-05
10 *44:12 *247:B1 6.64017e-05
*RES
1 *242:X *46:4 1.6 
2 *46:4 *247:B1 3.43 
3 *46:4 *244:A3 7.49 
*END

*D_NET *47 0.000883931
*CONN
*I *244:B1 I *D sky130_fd_sc_hd__a31o_1
*I *243:X O *D sky130_fd_sc_hd__a22o_1
*CAP
1 *244:B1 0.000140703
2 *243:X 0.000140703
3 *244:B1 *82:111 0.000143396
4 *243:B1 *244:B1 2.16833e-05
5 *282:D *244:B1 9.30717e-05
6 *35:75 *244:B1 0.000296081
7 *35:88 *244:B1 4.82919e-05
*RES
1 *243:X *244:B1 11.415 
*END

*D_NET *48 0.00142255
*CONN
*I *249:A1 I *D sky130_fd_sc_hd__a21oi_1
*I *246:A I *D sky130_fd_sc_hd__inv_2
*I *248:A1 I *D sky130_fd_sc_hd__o21ai_1
*I *245:Y O *D sky130_fd_sc_hd__xnor2_1
*CAP
1 *249:A1 0
2 *246:A 0.000161008
3 *248:A1 0
4 *245:Y 0.000103318
5 *48:15 0.000217159
6 *48:8 0.000159469
7 *246:A *250:C1 1.52184e-05
8 *48:8 *249:A2 9.53428e-06
9 *48:8 *251:A2 0.000165968
10 *48:8 *50:12 1.08758e-05
11 *48:15 *249:A2 8.27447e-05
12 *48:15 *249:B1 4.82919e-05
13 *48:15 *250:C1 5.43792e-05
14 *48:15 *251:A2 0.000128179
15 *48:15 *50:12 9.80943e-06
16 *279:A1 *246:A 1.22676e-05
17 *35:75 *246:A 6.65717e-05
18 *36:58 *246:A 0.000177753
*RES
1 *245:Y *48:8 3.7 
2 *48:8 *248:A1 1.6 
3 *48:8 *48:15 2.175 
4 *48:15 *246:A 9.14 
5 *48:15 *249:A1 1.6 
*END

*D_NET *49 0.000555756
*CONN
*I *252:A3 I *D sky130_fd_sc_hd__o31ai_2
*I *246:Y O *D sky130_fd_sc_hd__inv_2
*CAP
1 *252:A3 0.000230398
2 *246:Y 0.000230398
3 *252:A3 *94:56 0
4 *252:A3 *94:66 0
5 *252:A2 *252:A3 7.63125e-05
6 *43:8 *252:A3 1.86482e-05
*RES
1 *246:Y *252:A3 10.32 
*END

*D_NET *50 0.00141624
*CONN
*I *249:A2 I *D sky130_fd_sc_hd__a21oi_1
*I *248:A2 I *D sky130_fd_sc_hd__o21ai_1
*I *247:Y O *D sky130_fd_sc_hd__o21ai_1
*CAP
1 *249:A2 0.000161085
2 *248:A2 0
3 *247:Y 0.000120074
4 *50:12 0.00028116
5 *249:A2 *250:C1 0.000178386
6 *249:A2 *251:A1 0.000233004
7 *249:A2 *251:A2 5.13231e-05
8 *50:12 *282:RESET_B 0.00013818
9 *50:12 *94:16 0.000140063
10 *48:8 *249:A2 9.53428e-06
11 *48:8 *50:12 1.08758e-05
12 *48:15 *249:A2 8.27447e-05
13 *48:15 *50:12 9.80943e-06
*RES
1 *247:Y *50:12 8.96 
2 *50:12 *248:A2 1.6 
3 *50:12 *249:A2 6.235 
*END

*D_NET *51 0.000116022
*CONN
*I *249:B1 I *D sky130_fd_sc_hd__a21oi_1
*I *248:Y O *D sky130_fd_sc_hd__o21ai_1
*CAP
1 *249:B1 9.71884e-06
2 *248:Y 9.71884e-06
3 *249:B1 *251:A2 4.82919e-05
4 *48:15 *249:B1 4.82919e-05
*RES
1 *248:Y *249:B1 3.65 
*END

*D_NET *52 0.00191696
*CONN
*I *250:C1 I *D sky130_fd_sc_hd__a221o_1
*I *249:Y O *D sky130_fd_sc_hd__a21oi_1
*CAP
1 *250:C1 0.00070024
2 *249:Y 0.00070024
3 *250:C1 *251:A2 1.46828e-05
4 *250:C1 *287:CLK 0
5 *246:A *250:C1 1.52184e-05
6 *249:A2 *250:C1 0.000178386
7 *279:A1 *250:C1 0
8 *283:D *250:C1 0.000151471
9 *35:61 *250:C1 1.37328e-05
10 *35:75 *250:C1 8.86106e-05
11 *36:58 *250:C1 0
12 *48:15 *250:C1 5.43792e-05
*RES
1 *249:Y *250:C1 18.09 
*END

*D_NET *53 0.000526102
*CONN
*I *252:B1 I *D sky130_fd_sc_hd__o31ai_2
*I *251:Y O *D sky130_fd_sc_hd__o21bai_1
*CAP
1 *252:B1 9.91205e-05
2 *251:Y 9.91205e-05
3 *252:B1 *251:A1 4.94457e-05
4 *252:B1 *251:A2 0.000184784
5 *252:B1 *54:14 9.36311e-05
*RES
1 *251:Y *252:B1 6.275 
*END

*D_NET *54 0.00393984
*CONN
*I *257:A I *D sky130_fd_sc_hd__nand2_1
*I *270:A1 I *D sky130_fd_sc_hd__a31o_1
*I *256:A I *D sky130_fd_sc_hd__or2_1
*I *261:A1 I *D sky130_fd_sc_hd__a21o_1
*I *252:Y O *D sky130_fd_sc_hd__o31ai_2
*CAP
1 *257:A 0.000239426
2 *270:A1 0.000130139
3 *256:A 0.000177569
4 *261:A1 0
5 *252:Y 0.000228216
6 *54:23 0.000307708
7 *54:21 0.000381792
8 *54:14 0.000370581
9 *256:A *256:B 0.000106833
10 *256:A *260:A 8.5242e-05
11 *256:A *284:CLK 0.000178314
12 *256:A *289:A 1.08056e-05
13 *256:A *94:107 0.000139697
14 *257:A *284:CLK 0.000312422
15 *270:A1 *253:B 8.43491e-05
16 *270:A1 *260:A 0.000137578
17 *270:A1 *269:B1_N 3.09164e-05
18 *270:A1 *270:B1 8.64421e-05
19 *270:A1 *289:A 4.9515e-05
20 *270:A1 *70:28 7.27003e-05
21 *54:14 *251:A1 2.75145e-05
22 *54:14 *255:A 7.06347e-05
23 *54:14 *255:B 8.30853e-06
24 *54:14 *257:B 1.08758e-05