*SPEF "ieee 1481-1999"
*DESIGN "counter"
*DATE "12:39:25 Wednesday December 04, 2024"
*VENDOR "The OpenROAD Project"
*PROGRAM "OpenROAD"
*VERSION "b16bda7e82721d10566ff7e2b68f1ff0be9f9e38"
*DESIGN_FLOW "NAME_SCOPE LOCAL" "PIN_CAP NONE"
*DIVIDER /
*DELIMITER :
*BUS_DELIMITER []
*T_UNIT 1 NS
*C_UNIT 1 PF
*R_UNIT 1 OHM
*L_UNIT 1 HENRY

*NAME_MAP
*3 clk
*4 count[0]
*5 count[1]
*6 count[2]
*7 count[3]
*8 count[4]
*9 count[5]
*10 count[6]
*11 count[7]
*12 data[0]
*13 data[1]
*14 data[2]
*15 data[3]
*16 data[4]
*17 data[5]
*18 data[6]
*19 data[7]
*20 enable
*21 preload
*22 resetn
*23 up_down
*24 _000_
*25 _001_
*26 _002_
*27 _003_
*28 _004_
*29 _005_
*30 _006_
*31 _007_
*32 _008_
*33 _009_
*34 _010_
*35 _011_
*36 _012_
*37 _013_
*38 _014_
*39 _015_
*40 _016_
*41 _017_
*42 _018_
*43 _019_
*44 _020_
*45 _021_
*46 _022_
*47 _023_
*48 _024_
*49 _025_
*50 _026_
*51 _027_
*52 _028_
*53 _029_
*54 _030_
*55 _031_
*56 _032_
*57 _033_
*58 _034_
*59 _035_
*60 _036_
*61 _037_
*62 _038_
*63 _039_
*64 _040_
*65 _041_
*66 _042_
*67 _043_
*68 _044_
*69 _045_
*70 _046_
*71 _047_
*72 _048_
*73 _049_
*74 _050_
*75 _051_
*76 _052_
*77 _053_
*78 clknet_0_clk
*79 clknet_1_0__leaf_clk
*80 clknet_1_1__leaf_clk
*81 net1
*82 net10
*83 net11
*84 net12
*85 net13
*86 net14
*87 net15
*88 net16
*89 net17
*90 net18
*91 net19
*92 net2
*93 net20
*94 net21
*95 net22
*96 net23
*97 net24
*98 net25
*99 net26
*100 net27
*101 net28
*102 net29
*103 net3
*104 net30
*105 net31
*106 net32
*107 net34
*108 net35
*109 net4
*110 net5
*111 net6
*112 net7
*113 net8
*114 net9
*115 FILLER_0_0_22
*116 FILLER_0_0_27
*117 FILLER_0_0_29
*118 FILLER_0_0_3
*119 FILLER_0_0_55
*120 FILLER_0_10_10
*121 FILLER_0_10_17
*122 FILLER_0_10_25
*123 FILLER_0_10_29
*124 FILLER_0_10_54
*125 FILLER_0_10_66
*126 FILLER_0_11_14
*127 FILLER_0_11_24
*128 FILLER_0_11_32
*129 FILLER_0_11_54
*130 FILLER_0_11_57
*131 FILLER_0_11_69
*132 FILLER_0_11_77
*133 FILLER_0_12_15
*134 FILLER_0_12_27
*135 FILLER_0_12_29
*136 FILLER_0_12_3
*137 FILLER_0_12_37
*138 FILLER_0_12_50
*139 FILLER_0_12_57
*140 FILLER_0_12_69
*141 FILLER_0_12_77
*142 FILLER_0_1_44
*143 FILLER_0_1_55
*144 FILLER_0_1_57
*145 FILLER_0_2_13
*146 FILLER_0_2_21
*147 FILLER_0_2_27
*148 FILLER_0_2_29
*149 FILLER_0_2_7
*150 FILLER_0_3_10
*151 FILLER_0_3_16
*152 FILLER_0_3_55
*153 FILLER_0_3_66
*154 FILLER_0_4_18
*155 FILLER_0_4_24
*156 FILLER_0_4_3
*157 FILLER_0_4_56
*158 FILLER_0_5_12
*159 FILLER_0_5_17
*160 FILLER_0_5_21
*161 FILLER_0_5_31
*162 FILLER_0_5_37
*163 FILLER_0_5_55
*164 FILLER_0_6_20
*165 FILLER_0_6_29
*166 FILLER_0_6_77
*167 FILLER_0_7_35
*168 FILLER_0_7_62
*169 FILLER_0_7_68
*170 FILLER_0_8_15
*171 FILLER_0_8_27
*172 FILLER_0_8_3
*173 FILLER_0_9_23
*174 FILLER_0_9_29
*175 FILLER_0_9_53
*176 FILLER_0_9_57
*177 PHY_EDGE_ROW_0_Left_13
*178 PHY_EDGE_ROW_0_Right_0
*179 PHY_EDGE_ROW_10_Left_23
*180 PHY_EDGE_ROW_10_Right_10
*181 PHY_EDGE_ROW_11_Left_24
*182 PHY_EDGE_ROW_11_Right_11
*183 PHY_EDGE_ROW_12_Left_25
*184 PHY_EDGE_ROW_12_Right_12
*185 PHY_EDGE_ROW_1_Left_14
*186 PHY_EDGE_ROW_1_Right_1
*187 PHY_EDGE_ROW_2_Left_15
*188 PHY_EDGE_ROW_2_Right_2
*189 PHY_EDGE_ROW_3_Left_16
*190 PHY_EDGE_ROW_3_Right_3
*191 PHY_EDGE_ROW_4_Left_17
*192 PHY_EDGE_ROW_4_Right_4
*193 PHY_EDGE_ROW_5_Left_18
*194 PHY_EDGE_ROW_5_Right_5
*195 PHY_EDGE_ROW_6_Left_19
*196 PHY_EDGE_ROW_6_Right_6
*197 PHY_EDGE_ROW_7_Left_20
*198 PHY_EDGE_ROW_7_Right_7
*199 PHY_EDGE_ROW_8_Left_21
*200 PHY_EDGE_ROW_8_Right_8
*201 PHY_EDGE_ROW_9_Left_22
*202 PHY_EDGE_ROW_9_Right_9
*203 TAP_TAPCELL_ROW_0_26
*204 TAP_TAPCELL_ROW_0_27
*205 TAP_TAPCELL_ROW_10_37
*206 TAP_TAPCELL_ROW_11_38
*207 TAP_TAPCELL_ROW_12_39
*208 TAP_TAPCELL_ROW_12_40
*209 TAP_TAPCELL_ROW_1_28
*210 TAP_TAPCELL_ROW_2_29
*211 TAP_TAPCELL_ROW_3_30
*212 TAP_TAPCELL_ROW_4_31
*213 TAP_TAPCELL_ROW_5_32
*214 TAP_TAPCELL_ROW_6_33
*215 TAP_TAPCELL_ROW_7_34
*216 TAP_TAPCELL_ROW_8_35
*217 TAP_TAPCELL_ROW_9_36
*218 _054_
*219 _055_
*220 _056_
*221 _057_
*222 _058_
*223 _059_
*224 _060_
*225 _061_
*226 _062_
*227 _063_
*228 _064_
*229 _065_
*230 _066_
*231 _067_
*232 _068_
*233 _069_
*234 _070_
*235 _071_
*236 _072_
*237 _073_
*238 _074_
*239 _075_
*240 _076_
*241 _077_
*242 _078_
*243 _079_
*244 _080_
*245 _081_
*246 _082_
*247 _083_
*248 _084_
*249 _085_
*250 _086_
*251 _087_
*252 _088_
*253 _089_
*254 _090_
*255 _091_
*256 _092_
*257 _093_
*258 _094_
*259 _095_
*260 _096_
*261 _097_
*262 _098_
*263 _099_
*264 _100_
*265 _101_
*266 _102_
*267 _103_
*268 _104_
*269 _105_
*270 _106_
*271 _107_
*272 _108_
*273 _109_
*274 _110_
*275 _111_
*276 _112_
*277 _113_
*278 _114_
*279 _115_
*280 clkbuf_0_clk
*281 clkbuf_1_0__f_clk
*282 clkbuf_1_1__f_clk
*283 clkload0
*284 clone11
*285 fanout21
*286 hold13
*287 hold14
*288 input1
*289 input10
*290 input11
*291 input12
*292 input2
*293 input3
*294 input4
*295 input5
*296 input6
*297 input7
*298 input8
*299 input9
*300 output13
*301 output14
*302 output15
*303 output16
*304 output17
*305 output18
*306 output19
*307 output20
*308 rebuffer1
*309 rebuffer10
*310 rebuffer2
*311 rebuffer3
*312 rebuffer4
*313 rebuffer5
*314 rebuffer6
*315 rebuffer7
*316 rebuffer8
*317 rebuffer9

*PORTS
clk I
count[0] O
count[1] O
count[2] O
count[3] O
count[4] O
count[5] O
count[6] O
count[7] O
data[0] I
data[1] I
data[2] I
data[3] I
data[4] I
data[5] I
data[6] I
data[7] I
enable I
preload I
resetn I
up_down I

*D_NET *3 0.004985
*CONN
*P clk I
*I *280:A I *D sky130_fd_sc_hd__clkbuf_16
*CAP
1 clk 0.0020482
2 *280:A 0.0020482
3 *280:A count[2] 3.45861e-05
4 *280:A count[3] 0
5 *280:A *247:B 0.000121573
6 *280:A *289:A 3.71658e-05
7 *280:A *310:A 9.87617e-05
8 *280:A *315:A 0.000164972
9 *280:A *43:14 0
10 *280:A *54:8 0.000332771
11 *280:A *96:12 9.87617e-05
*RES
1 clk *280:A 28.0387 
*END

*D_NET *4 0.000890772
*CONN
*P count[0] O
*I *300:X O *D sky130_fd_sc_hd__buf_2
*CAP
1 count[0] 0.000394483
2 *300:X 0.000394483
3 count[0] *286:A 0.000101806
4 count[0] *300:A 0
*RES
1 *300:X count[0] 19.0183 
*END

*D_NET *5 0.00228326
*CONN
*P count[1] O
*I *301:X O *D sky130_fd_sc_hd__buf_2
*CAP
1 count[1] 0.000715466
2 *301:X 0.000715466
3 count[1] *229:A1 0.00014576
4 count[1] *229:B2 0
5 count[1] *230:A1 0.00027032
6 count[1] *230:A2 8.25843e-06
7 count[1] *292:A 0.000328124
8 count[1] *35:45 8.90314e-05
9 count[1] *35:59 1.08359e-05
10 count[1] *81:18 0
*RES
1 *301:X count[1] 37.9786 
*END

*D_NET *6 0.000669902
*CONN
*P count[2] O
*I *302:X O *D sky130_fd_sc_hd__buf_2
*CAP
1 count[2] 0.000317658
2 *302:X 0.000317658
3 count[2] *87:21 0
4 *280:A count[2] 3.45861e-05
*RES
1 *302:X count[2] 20.6554 
*END

*D_NET *7 0.000810397
*CONN
*P count[3] O
*I *303:X O *D sky130_fd_sc_hd__buf_2
*CAP
1 count[3] 0.000297898
2 *303:X 0.000297898
3 count[3] *237:A 6.99087e-05
4 count[3] *289:A 3.45861e-05
5 count[3] *294:A 5.44117e-05
6 count[3] *84:12 0
7 count[3] *88:35 5.56943e-05
8 *280:A count[3] 0
*RES
1 *303:X count[3] 20.6235 
*END

*D_NET *8 0.000828937
*CONN
*P count[4] O
*I *304:X O *D sky130_fd_sc_hd__buf_2
*CAP
1 count[4] 0.000314629
2 *304:X 0.000314629
3 count[4] count[5] 0
4 count[4] *221:B 5.80706e-06
5 count[4] *296:A 7.60209e-05
6 count[4] *299:A 0.000108255
7 count[4] *35:43 0
8 count[4] *82:77 9.59532e-06
*RES
1 *304:X count[4] 18.4832 
*END

*D_NET *9 0.000518575
*CONN
*P count[5] O
*I *305:X O *D sky130_fd_sc_hd__buf_2
*CAP
1 count[5] 0.000205294
2 *305:X 0.000205294
3 count[5] *296:A 7.3448e-05
4 count[5] *305:A 3.454e-05
5 count[4] count[5] 0
*RES
1 *305:X count[5] 18.73 
*END

*D_NET *10 0.00104275
*CONN
*P count[6] O
*I *306:X O *D sky130_fd_sc_hd__clkbuf_4
*CAP
1 count[6] 0.000520906
2 *306:X 0.000520906
3 count[6] *297:A 0
4 count[6] *68:10 9.33978e-07
*RES
1 *306:X count[6] 23.7107 
*END

*D_NET *11 0.000587687
*CONN
*P count[7] O
*I *307:X O *D sky130_fd_sc_hd__buf_2
*CAP
1 count[7] 0.000256952
2 *307:X 0.000256952
3 count[7] *268:A 0
4 count[7] *291:A 0
5 count[7] *298:A 2.87684e-05
6 count[7] *93:23 4.50149e-05
*RES
1 *307:X count[7] 18.4985 
*END

*D_NET *12 0.00319383
*CONN
*P data[0] I
*I *288:A I *D sky130_fd_sc_hd__clkbuf_1
*CAP
1 data[0] 0.00101769
2 *288:A 0.00101769
3 *288:A *292:A 0.000125903
4 *288:A *81:18 0.000957542
5 *288:A *82:20 4.88637e-05
6 *288:A *82:37 2.61337e-05
*RES
1 data[0] *288:A 39.9964 
*END

*D_NET *13 0.0017033
*CONN
*P data[1] I
*I *292:A I *D sky130_fd_sc_hd__clkbuf_1
*CAP
1 data[1] 0.000616594
2 *292:A 0.000616594
3 *292:A *229:A2 6.05161e-06
4 *292:A *35:59 0
5 *292:A *81:18 1.00375e-05
6 count[1] *292:A 0.000328124
7 *288:A *292:A 0.000125903
*RES
1 data[1] *292:A 35.6036 
*END

*D_NET *14 0.00114537
*CONN
*P data[2] I
*I *293:A I *D sky130_fd_sc_hd__clkbuf_1
*CAP
1 data[2] 0.000542185
2 *293:A 0.000542185
3 *293:A *235:A2 6.09963e-05
4 *293:A *35:59 0
5 *293:A *82:14 0
6 *293:A *82:20 0
*RES
1 data[2] *293:A 23.3893 
*END

*D_NET *15 0.00162702
*CONN
*P data[3] I
*I *294:A I *D sky130_fd_sc_hd__clkbuf_1
*CAP
1 data[3] 0.000635509
2 *294:A 0.000635509
3 *294:A *270:A1 0.000139907
4 *294:A *270:A2 4.43256e-05
5 *294:A *270:B1 0
6 *294:A *270:B2 5.62995e-05
7 *294:A *271:B1 4.46231e-06
8 *294:A *291:A 5.65933e-05
9 *294:A *84:12 0
10 *294:A *88:35 0
11 count[3] *294:A 5.44117e-05
*RES
1 data[3] *294:A 25.5138 
*END

*D_NET *16 0.00110772
*CONN
*P data[4] I
*I *295:A I *D sky130_fd_sc_hd__clkbuf_1
*CAP
1 data[4] 0.000356672
2 *295:A 0.000356672
3 *295:A *250:B1 0.000173948
4 *295:A *286:A 0
5 *295:A *299:A 8.00391e-05
6 *295:A *36:81 0
7 *295:A *82:62 0
8 *295:A *89:10 0.000140384
*RES
1 data[4] *295:A 21.7657 
*END

*D_NET *17 0.000424726
*CONN
*P data[5] I
*I *296:A I *D sky130_fd_sc_hd__clkbuf_1
*CAP
1 data[5] 0.000129615
2 *296:A 0.000129615
3 *296:A *90:12 1.60258e-05
4 count[4] *296:A 7.60209e-05
5 count[5] *296:A 7.3448e-05
*RES
1 data[5] *296:A 18.3544 
*END

*D_NET *18 0.00121605
*CONN
*P data[6] I
*I *297:A I *D sky130_fd_sc_hd__clkbuf_1
*CAP
1 data[6] 0.000580551
2 *297:A 0.000580551
3 *297:A *260:A 5.49489e-05
4 count[6] *297:A 0
*RES
1 data[6] *297:A 25.0321 
*END

*D_NET *19 0.000650145
*CONN
*P data[7] I
*I *298:A I *D sky130_fd_sc_hd__clkbuf_1
*CAP
1 data[7] 0.000299391
2 *298:A 0.000299391
3 *298:A *291:A 2.25951e-05
4 *298:A *93:23 0
5 count[7] *298:A 2.87684e-05
*RES
1 data[7] *298:A 21.0874 
*END

*D_NET *20 0.00237169
*CONN
*P enable I
*I *299:A I *D sky130_fd_sc_hd__clkbuf_1
*CAP
1 enable 0.000591664
2 *299:A 0.000591664
3 *299:A *224:A2 9.25014e-06
4 *299:A *228:B1 5.33005e-05
5 *299:A *251:A2 0.000114492
6 *299:A *251:A3 2.82057e-05
7 *299:A *35:43 5.90443e-06
8 *299:A *36:81 2.39948e-05
9 *299:A *82:58 0.000318309
10 *299:A *114:8 0.000446615
11 count[4] *299:A 0.000108255
12 *295:A *299:A 8.00391e-05
*RES
1 enable *299:A 25.3065 
*END

*D_NET *21 0.000787277
*CONN
*P preload I
*I *289:A I *D sky130_fd_sc_hd__buf_2
*CAP
1 preload 0.000357763
2 *289:A 0.000357763
3 *289:A *94:10 0
4 count[3] *289:A 3.45861e-05
5 *280:A *289:A 3.71658e-05
*RES
1 preload *289:A 22.4947 
*END

*D_NET *22 0.000696819
*CONN
*P resetn I
*I *286:A I *D sky130_fd_sc_hd__dlygate4sd3_1
*CAP
1 resetn 0.000294603
2 *286:A 0.000294603
3 *286:A *224:A2 5.80706e-06
4 *286:A *82:58 0
5 count[0] *286:A 0.000101806
6 *295:A *286:A 0
*RES
1 resetn *286:A 18.4832 
*END

*D_NET *23 0.00142411
*CONN
*P up_down I
*I *291:A I *D sky130_fd_sc_hd__clkbuf_2
*CAP
1 up_down 0.000389679
2 *291:A 0.000389679
3 *291:A *270:A2 0.000220749
4 *291:A *270:B2 0.000115369
5 *291:A *84:12 0
6 *291:A *93:23 0.000229443
7 count[7] *291:A 0
8 *294:A *291:A 5.65933e-05
9 *298:A *291:A 2.25951e-05
*RES
1 up_down *291:A 23.4985 
*END

*D_NET *24 0.000874384
*CONN
*I *272:D I *D sky130_fd_sc_hd__dfrtp_1
*I *224:Y O *D sky130_fd_sc_hd__a21oi_1
*CAP
1 *272:D 0.000208967
2 *224:Y 0.000208967
3 *272:D *224:B1 4.53889e-05
4 *272:D *228:A1 0.000166976
5 *272:D *276:CLK 0.000109826
6 *272:D *32:29 3.34295e-05
7 *272:D *79:12 0.000100831
*RES
1 *224:Y *272:D 32.3321 
*END

*D_NET *25 0.000431909
*CONN
*I *273:D I *D sky130_fd_sc_hd__dfrtp_1
*I *230:X O *D sky130_fd_sc_hd__a21o_1
*CAP
1 *273:D 0.000163547
2 *230:X 0.000163547
3 *273:D *229:A2 0.000100684
4 *273:D *230:A1 4.13122e-06
*RES
1 *230:X *273:D 30.1893 
*END

*D_NET *26 0.000230407
*CONN
*I *274:D I *D sky130_fd_sc_hd__dfrtp_2
*I *236:X O *D sky130_fd_sc_hd__a31o_1
*CAP
1 *274:D 4.82623e-05
2 *236:X 4.82623e-05
3 *274:D *236:B1 9.91086e-05
4 *274:D *274:CLK 1.19309e-05
5 *274:D *283:A 2.28428e-05
*RES
1 *236:X *274:D 28.9393 
*END

*D_NET *27 0.000305925
*CONN
*I *275:D I *D sky130_fd_sc_hd__dfrtp_1
*I *242:X O *D sky130_fd_sc_hd__a221o_1
*CAP
1 *275:D 0.000107408
2 *242:X 0.000107408
3 *275:D *242:A2 1.33343e-05
4 *275:D *242:B2 0
5 *275:D *275:CLK 7.77751e-05
*RES
1 *242:X *275:D 20.7964 
*END

*D_NET *28 0.000458176
*CONN
*I *276:D I *D sky130_fd_sc_hd__dfrtp_1
*I *251:X O *D sky130_fd_sc_hd__a31o_1
*CAP
1 *276:D 0.000177434
2 *251:X 0.000177434
3 *276:D *245:A_N 0
4 *276:D *83:40 5.26091e-05
5 *276:D *89:19 4.70078e-05
6 *276:D *89:25 3.69047e-06
*RES
1 *251:X *276:D 30.9036 
*END

*D_NET *29 0.000191054
*CONN
*I *277:D I *D sky130_fd_sc_hd__dfrtp_1
*I *257:X O *D sky130_fd_sc_hd__a31o_1
*CAP
1 *277:D 9.55269e-05
2 *257:X 9.55269e-05
3 *277:D *265:B1 0
4 *277:D *36:27 0
*RES
1 *257:X *277:D 29.2429 
*END

*D_NET *30 0.00122884
*CONN
*I *278:D I *D sky130_fd_sc_hd__dfrtp_1
*I *266:X O *D sky130_fd_sc_hd__a31o_1
*CAP
1 *278:D 0.000419663
2 *266:X 0.000419663
3 *278:D *68:14 0.000125731
4 *278:D *70:8 7.15591e-05
5 *278:D *83:52 0.00019106
6 *278:D *83:56 1.16695e-06
*RES
1 *266:X *278:D 34.533 
*END

*D_NET *31 0.000928295
*CONN
*I *279:D I *D sky130_fd_sc_hd__dfrtp_1
*I *271:X O *D sky130_fd_sc_hd__a21o_1
*CAP
1 *279:D 0.000335183
2 *271:X 0.000335183
3 *279:D *271:B1 3.92854e-05
4 *279:D *279:RESET_B 0.000177052
5 *279:D *84:12 4.15914e-05
*RES
1 *271:X *279:D 32.475 
*END

*D_NET *32 0.00470517
*CONN
*I *228:A1 I *D sky130_fd_sc_hd__o21a_1
*I *227:A I *D sky130_fd_sc_hd__nand2_1
*I *223:B2 I *D sky130_fd_sc_hd__a22o_1
*I *231:A2 I *D sky130_fd_sc_hd__o21a_1
*I *218:Y O *D sky130_fd_sc_hd__inv_2
*CAP
1 *228:A1 9.56824e-05
2 *227:A 0.000102733
3 *223:B2 0.000177571
4 *231:A2 0.000197498
5 *218:Y 9.67242e-05
6 *32:29 0.000432478
7 *32:25 0.000643801
8 *32:6 0.000690167
9 *223:B2 *223:A2 1.66856e-05
10 *223:B2 *230:A1 8.62843e-05
11 *223:B2 *230:A2 5.41794e-05
12 *223:B2 *35:43 3.17148e-05
13 *223:B2 *35:45 0.000108531
14 *223:B2 *82:37 1.08359e-05
15 *227:A *223:A2 0.000109677
16 *227:A *230:A1 7.19498e-05
17 *228:A1 *224:B1 0.00010326
18 *228:A1 *276:CLK 7.22859e-05
19 *228:A1 *83:24 0.000117144
20 *228:A1 *102:12 1.02504e-05
21 *231:A2 *230:A2 0
22 *231:A2 *231:A1 2.39329e-05
23 *231:A2 *281:A 0.0001399
24 *231:A2 *99:12 0.000117482
25 *32:6 *79:14 0.00014183
26 *32:25 *218:A 9.00795e-06
27 *32:25 *79:12 9.60875e-05
28 *32:25 *79:14 0.000391373
29 *32:29 *223:A2 2.94103e-05
30 *32:29 *224:B1 0.000200406
31 *32:29 *227:B 0
32 *32:29 *35:43 6.57244e-05
33 *32:29 *82:37 1.76135e-05
34 *32:29 *82:58 4.25427e-05
35 *272:D *228:A1 0.000166976
36 *272:D *32:29 3.34295e-05
*RES
1 *218:Y *32:6 10.6571 
2 *32:6 *231:A2 22.2464 
3 *32:6 *32:25 9.96429 
4 *32:25 *32:29 8.57143 
5 *32:29 *223:B2 21.3357 
6 *32:29 *227:A 12.3179 
7 *32:25 *228:A1 17.8714 
*END

*D_NET *33 0.00079449
*CONN
*I *223:A2 I *D sky130_fd_sc_hd__a22o_1
*I *219:Y O *D sky130_fd_sc_hd__inv_2
*CAP
1 *223:A2 0.000257963
2 *219:Y 0.000257963
3 *223:A2 *227:B 4.46186e-06
4 *223:A2 *230:A1 7.68866e-05
5 *223:A2 *81:18 1.37292e-05
6 *223:A2 *82:58 2.32517e-05
7 *223:A2 *83:14 4.46231e-06
8 *223:B2 *223:A2 1.66856e-05
9 *227:A *223:A2 0.000109677
10 *32:29 *223:A2 2.94103e-05
*RES
1 *219:Y *223:A2 31.7696 
*END

*D_NET *34 0.000285144
*CONN
*I *239:A2 I *D sky130_fd_sc_hd__o21ai_1
*I *220:Y O *D sky130_fd_sc_hd__inv_2
*CAP
1 *239:A2 9.60117e-05
2 *220:Y 9.60117e-05
3 *239:A2 *82:14 9.31209e-05
*RES
1 *220:Y *239:A2 20.3679 
*END

*D_NET *35 0.015619
*CONN
*I *250:B1 I *D sky130_fd_sc_hd__a22o_1
*I *256:B1 I *D sky130_fd_sc_hd__a22o_1
*I *223:B1 I *D sky130_fd_sc_hd__a22o_1
*I *229:B1 I *D sky130_fd_sc_hd__a22o_1
*I *235:B1 I *D sky130_fd_sc_hd__a22o_1
*I *242:B1 I *D sky130_fd_sc_hd__a221o_1
*I *270:B1 I *D sky130_fd_sc_hd__a22o_1
*I *265:B1 I *D sky130_fd_sc_hd__a22o_1
*I *221:Y O *D sky130_fd_sc_hd__nor2_2
*CAP
1 *250:B1 0.000290492
2 *256:B1 6.78936e-05
3 *223:B1 0
4 *229:B1 0
5 *235:B1 0
6 *242:B1 2.23854e-05
7 *270:B1 0.000188867
8 *265:B1 0.000541079
9 *221:Y 0
10 *35:69 0.0011484
11 *35:59 0.00160925
12 *35:45 0.000776679
13 *35:43 0.000823468
14 *35:10 0.00138806
15 *35:8 0.000268769
16 *35:4 0.000363272
17 *242:B1 *275:CLK 0
18 *250:B1 *221:B 1.39726e-05
19 *250:B1 *250:A2 9.68445e-05
20 *250:B1 *82:62 6.87834e-06
21 *250:B1 *82:77 0.000127428
22 *250:B1 *82:86 3.07555e-05
23 *256:B1 *36:10 0
24 *256:B1 *82:86 0.000125731
25 *265:B1 *248:B 2.27416e-05
26 *265:B1 *257:A2 0.000357048
27 *265:B1 *258:A_N 0.000122968
28 *265:B1 *265:A1 0.000224583
29 *265:B1 *265:B2 5.33005e-05
30 *265:B1 *304:A 0.00022266
31 *265:B1 *36:27 9.16074e-05
32 *265:B1 *83:40 0
33 *265:B1 *105:12 7.2754e-05
34 *270:B1 *242:B2 2.16855e-05
35 *270:B1 *84:12 5.01213e-05
36 *35:8 *221:B 4.43256e-05
37 *35:10 *221:B 6.87574e-05
38 *35:10 *304:A 0.000130419
39 *35:43 *221:B 9.11365e-06
40 *35:43 *228:B1 0.000244474
41 *35:43 *230:A2 0.000276671
42 *35:43 *245:A_N 0
43 *35:43 *251:A2 0.000289782
44 *35:43 *251:A3 0.000128154
45 *35:43 *276:CLK 0.000314632
46 *35:43 *281:A 0
47 *35:43 *36:10 0.000295844
48 *35:43 *79:12 0.000100831
49 *35:43 *82:37 9.25014e-06
50 *35:43 *82:58 0.000171327
51 *35:43 *82:77 0
52 *35:43 *83:24 0.000101545
53 *35:43 *83:40 0.000330689
54 *35:45 *230:A1 0.000100819
55 *35:45 *230:A2 0.00040381
56 *35:59 *229:A1 0.00014576
57 *35:59 *82:20 0.00142813
58 *35:59 *82:37 4.18895e-05
59 *35:69 *235:B2 0.000142856
60 *35:69 *236:A1 1.27784e-05
61 *35:69 *236:A3 0.000153391
62 *35:69 *239:A1 0.000175519
63 *35:69 *239:B1 7.48356e-05
64 *35:69 *240:A1 0.000127446
65 *35:69 *241:A2 2.82057e-05
66 *35:69 *242:A2 3.17067e-05
67 *35:69 *270:A1 3.34295e-05
68 *35:69 *36:42 7.35316e-05
69 *35:69 *50:10 7.48356e-05
70 *35:69 *82:14 0
71 *35:69 *82:132 0.000438868
72 *35:69 *87:21 0
73 *35:69 *87:32 0
74 *35:69 *94:10 0
75 count[1] *35:45 8.90314e-05
76 count[1] *35:59 1.08359e-05
77 count[4] *35:43 0
78 *223:B2 *35:43 3.17148e-05
79 *223:B2 *35:45 0.000108531
80 *277:D *265:B1 0
81 *292:A *35:59 0
82 *293:A *35:59 0
83 *294:A *270:B1 0
84 *295:A *250:B1 0.000173948
85 *299:A *35:43 5.90443e-06
86 *32:29 *35:43 6.57244e-05
*RES
1 *221:Y *35:4 9.3 
2 *35:4 *35:8 1.375 
3 *35:8 *35:10 2.58929 
4 *35:10 *265:B1 31.2107 
5 *35:10 *35:43 39.4107 
6 *35:43 *35:45 4.64286 
7 *35:45 *35:59 35.3571 
8 *35:59 *35:69 30.4643 
9 *35:69 *270:B1 20.9964 
10 *35:69 *242:B1 9.72857 
11 *35:59 *235:B1 9.3 
12 *35:45 *229:B1 9.3 
13 *35:43 *223:B1 9.3 
14 *35:8 *256:B1 19.9429 
15 *35:4 *250:B1 24.425 
*END

*D_NET *36 0.0114106
*CONN
*I *251:A1 I *D sky130_fd_sc_hd__a31o_1
*I *228:B1 I *D sky130_fd_sc_hd__o21a_1
*I *224:A2 I *D sky130_fd_sc_hd__a21oi_1
*I *271:A1 I *D sky130_fd_sc_hd__a21o_1
*I *240:B1 I *D sky130_fd_sc_hd__o21ai_1
*I *236:A1 I *D sky130_fd_sc_hd__a31o_1
*I *266:A1 I *D sky130_fd_sc_hd__a31o_1
*I *257:A1 I *D sky130_fd_sc_hd__a31o_1
*I *222:X O *D sky130_fd_sc_hd__and2b_2
*CAP
1 *251:A1 3.42071e-05
2 *228:B1 0.000260651
3 *224:A2 9.87431e-05
4 *271:A1 0
5 *240:B1 1.40355e-05
6 *236:A1 0.000272232
7 *266:A1 0
8 *257:A1 0
9 *222:X 0
10 *36:81 0.000579107
11 *36:75 0.000404128
12 *36:42 0.000790315
13 *36:38 0.00118747
14 *36:27 0.00134156
15 *36:10 0.000949655
16 *36:4 0.000441727
17 *224:A2 *224:A1 0.000128161
18 *224:A2 *287:A 0
19 *224:A2 *82:58 0.000119441
20 *228:B1 *227:B 1.40306e-05
21 *228:B1 *317:A 0.000109466
22 *236:A1 *236:A3 0.000234598
23 *236:A1 *236:B1 7.43578e-06
24 *236:A1 *239:B1 0.000150625
25 *236:A1 *243:A1 9.65171e-05
26 *236:A1 *50:10 0.000125731
27 *236:A1 *82:14 5.37607e-05
28 *236:A1 *87:45 8.54929e-05
29 *240:B1 *239:A1 5.52302e-05
30 *240:B1 *84:21 2.89114e-05
31 *251:A1 *251:B1 5.33005e-05
32 *251:A1 *82:58 1.21258e-05
33 *251:A1 *89:19 9.41642e-05
34 *36:10 *257:A2 0.000128154
35 *36:10 *82:86 0
36 *36:10 *83:40 0.000298112
37 *36:27 *265:A1 0.000169054
38 *36:27 *265:B2 5.33005e-05
39 *36:27 *266:A2 0.000142664
40 *36:27 *266:B1 8.77944e-05
41 *36:27 *277:RESET_B 0.000202842
42 *36:27 *305:A 0
43 *36:27 *82:86 0
44 *36:27 *83:40 2.16719e-05
45 *36:38 *266:A2 3.38774e-05
46 *36:38 *266:A3 0.000141734
47 *36:38 *266:B1 1.02132e-05
48 *36:38 *308:A 0.000143375
49 *36:38 *70:12 0.000141729
50 *36:42 *241:A2 0.00017309
51 *36:42 *241:B1 0.000102545
52 *36:42 *242:A2 0.000128161
53 *36:42 *243:A1 4.46186e-06
54 *36:42 *271:A2 1.02504e-05
55 *36:42 *271:B1 0.000170523
56 *36:42 *275:CLK 0
57 *36:42 *279:RESET_B 0.000116007
58 *36:42 *50:10 2.48938e-05
59 *36:42 *84:12 0
60 *36:75 *82:62 5.78451e-05
61 *36:75 *114:8 0.000112168
62 *36:81 *82:62 4.02462e-05
63 *36:81 *89:10 0
64 *36:81 *114:8 0.000342488
65 *256:B1 *36:10 0
66 *265:B1 *36:27 9.16074e-05
67 *277:D *36:27 0
68 *286:A *224:A2 5.80706e-06
69 *295:A *36:81 0
70 *299:A *224:A2 9.25014e-06
71 *299:A *228:B1 5.33005e-05
72 *299:A *36:81 2.39948e-05
73 *35:43 *228:B1 0.000244474
74 *35:43 *36:10 0.000295844
75 *35:69 *236:A1 1.27784e-05
76 *35:69 *36:42 7.35316e-05
*RES
1 *222:X *36:4 9.3 
2 *36:4 *36:10 11.4464 
3 *36:10 *257:A1 13.8 
4 *36:10 *36:27 19.0893 
5 *36:27 *266:A1 9.3 
6 *36:27 *36:38 12.8929 
7 *36:38 *36:42 16.7679 
8 *36:42 *236:A1 21.5679 
9 *36:42 *240:B1 14.3357 
10 *36:38 *271:A1 9.3 
11 *36:4 *36:75 7.08929 
12 *36:75 *36:81 5.64286 
13 *36:81 *224:A2 16.6571 
14 *36:81 *228:B1 19.0143 
15 *36:75 *251:A1 14.7464 
*END

*D_NET *37 0.000987782
*CONN
*I *224:B1 I *D sky130_fd_sc_hd__a21oi_1
*I *223:X O *D sky130_fd_sc_hd__a22o_1
*CAP
1 *224:B1 0.000171799
2 *223:X 0.000171799
3 *224:B1 *83:14 0.000177227
4 *224:B1 *83:24 0.000117903
5 *228:A1 *224:B1 0.00010326
6 *272:D *224:B1 4.53889e-05
7 *32:29 *224:B1 0.000200406
*RES
1 *223:X *224:B1 32.725 
*END

*D_NET *38 0.00144833
*CONN
*I *231:B1 I *D sky130_fd_sc_hd__o21a_1
*I *225:Y O *D sky130_fd_sc_hd__nand2b_1
*CAP
1 *231:B1 0.000397749
2 *225:Y 0.000397749
3 *231:B1 *309:A 0.00012615
4 *231:B1 *86:23 8.02791e-05
5 *231:B1 *94:25 0.000446406
*RES
1 *225:Y *231:B1 35.3143 
*END

*D_NET *39 0.00126391
*CONN
*I *316:A I *D sky130_fd_sc_hd__dlygate4sd1_1
*I *231:A1 I *D sky130_fd_sc_hd__o21a_1
*I *226:X O *D sky130_fd_sc_hd__xor2_2
*CAP
1 *316:A 9.98155e-05
2 *231:A1 0.000149078
3 *226:X 4.00275e-05
4 *39:8 0.000288921
5 *231:A1 *245:B 4.58096e-05
6 *231:A1 *281:A 5.71472e-05
7 *231:A1 *309:A 5.83304e-05
8 *231:A1 *99:12 0.000130477
9 *316:A *245:B 7.57965e-05
10 *316:A *247:A 9.41642e-05
11 *316:A *249:A 3.34295e-05
12 *316:A *309:A 0.000166983
13 *231:A2 *231:A1 2.39329e-05
*RES
1 *226:X *39:8 14.3357 
2 *39:8 *231:A1 17.6036 
3 *39:8 *316:A 16.9964 
*END

*D_NET *40 0.0022858
*CONN
*I *230:A1 I *D sky130_fd_sc_hd__a21o_1
*I *227:Y O *D sky130_fd_sc_hd__nand2_1
*CAP
1 *230:A1 0.000631131
2 *227:Y 0.000631131
3 *230:A1 *229:A2 0.000183477
4 *230:A1 *230:A2 2.13481e-06
5 *230:A1 *82:58 0.000227539
6 count[1] *230:A1 0.00027032
7 *223:A2 *230:A1 7.68866e-05
8 *223:B2 *230:A1 8.62843e-05
9 *227:A *230:A1 7.19498e-05
10 *273:D *230:A1 4.13122e-06
11 *35:45 *230:A1 0.000100819
*RES
1 *227:Y *230:A1 39.0643 
*END

*D_NET *41 0.00248715
*CONN
*I *230:A2 I *D sky130_fd_sc_hd__a21o_1
*I *228:X O *D sky130_fd_sc_hd__o21a_1
*CAP
1 *230:A2 0.000788313
2 *228:X 0.000788313
3 *230:A2 *229:A2 7.4095e-05
4 *230:A2 *230:B1 9.13748e-05
5 *230:A2 *281:A 0
6 *230:A2 *301:A 0
7 count[1] *230:A2 8.25843e-06
8 *223:B2 *230:A2 5.41794e-05
9 *230:A1 *230:A2 2.13481e-06
10 *231:A2 *230:A2 0
11 *35:43 *230:A2 0.000276671
12 *35:45 *230:A2 0.00040381
*RES
1 *228:X *230:A2 41.7429 
*END

*D_NET *42 0.000409941
*CONN
*I *230:B1 I *D sky130_fd_sc_hd__a21o_1
*I *229:X O *D sky130_fd_sc_hd__a22o_1
*CAP
1 *230:B1 0.000135377
2 *229:X 0.000135377
3 *230:B1 *229:A2 4.7812e-05
4 *230:A2 *230:B1 9.13748e-05
*RES
1 *229:X *230:B1 21.225 
*END

*D_NET *43 0.00319035
*CONN
*I *244:A3 I *D sky130_fd_sc_hd__o31ai_4
*I *233:A I *D sky130_fd_sc_hd__nand2_1
*I *234:A I *D sky130_fd_sc_hd__or2_1
*I *231:X O *D sky130_fd_sc_hd__o21a_1
*CAP
1 *244:A3 0.000146007
2 *233:A 1.97597e-05
3 *234:A 6.03018e-05
4 *231:X 0.00051909
5 *43:20 0.000471011
6 *43:14 0.00105605
7 *233:A *234:B 1.00733e-05
8 *233:A *44:17 5.04841e-06
9 *234:A *44:6 5.62995e-05
10 *234:A *44:17 3.18676e-05
11 *244:A3 *225:B 0
12 *244:A3 *244:A1 5.37741e-06
13 *244:A3 *247:B 0.000141734
14 *244:A3 *57:18 8.17429e-05
15 *43:14 *225:B 0
16 *43:14 *83:78 0
17 *43:14 *86:23 7.77367e-05
18 *43:14 *99:12 9.90367e-05
19 *43:20 *283:A 0.000353086
20 *43:20 *44:17 1.02821e-05
21 *43:20 *94:25 4.58505e-05
22 *280:A *43:14 0
*RES
1 *231:X *43:14 20.8357 
2 *43:14 *43:20 9.98214 
3 *43:20 *234:A 10.6571 
4 *43:20 *233:A 9.72857 
5 *43:14 *244:A3 16.8 
*END

*D_NET *44 0.00258355
*CONN
*I *233:B I *D sky130_fd_sc_hd__nand2_1
*I *244:A2 I *D sky130_fd_sc_hd__o31ai_4
*I *234:B I *D sky130_fd_sc_hd__or2_1
*I *232:X O *D sky130_fd_sc_hd__xor2_1
*CAP
1 *233:B 0
2 *244:A2 0.00024313
3 *234:B 1.60348e-05
4 *232:X 0.00011018
5 *44:17 0.000278406
6 *44:6 0.000161492
7 *244:A2 *247:A 2.15245e-05
8 *244:A2 *247:B 0.000148221
9 *244:A2 *283:A 3.10819e-05
10 *244:A2 *57:18 0.000314466
11 *244:A2 *82:14 0
12 *244:A2 *83:78 7.05857e-05
13 *44:6 *87:45 0.000355002
14 *44:6 *94:16 0.000527311
15 *44:17 *225:A_N 2.47137e-05
16 *44:17 *283:A 2.89114e-05
17 *44:17 *94:16 0.000138919
18 *233:A *234:B 1.00733e-05
19 *233:A *44:17 5.04841e-06
20 *234:A *44:6 5.62995e-05
21 *234:A *44:17 3.18676e-05
22 *43:20 *44:17 1.02821e-05
*RES
1 *232:X *44:6 14.3536 
2 *44:6 *234:B 9.72857 
3 *44:6 *44:17 1.78571 
4 *44:17 *244:A2 24.4964 
5 *44:17 *233:B 9.3 
*END

*D_NET *45 0.000850582
*CONN
*I *236:A2 I *D sky130_fd_sc_hd__a31o_1
*I *233:Y O *D sky130_fd_sc_hd__nand2_1
*CAP
1 *236:A2 0.000248324
2 *233:Y 0.000248324
3 *236:A2 *236:A3 2.89016e-05
4 *236:A2 *236:B1 1.21258e-05
5 *236:A2 *283:A 0
6 *236:A2 *82:14 0.000128161
7 *236:A2 *94:16 0.000184745
*RES
1 *233:Y *236:A2 31.9571 
*END

*D_NET *46 0.00167548
*CONN
*I *239:B1 I *D sky130_fd_sc_hd__o21ai_1
*I *236:A3 I *D sky130_fd_sc_hd__a31o_1
*I *234:X O *D sky130_fd_sc_hd__or2_1
*CAP
1 *239:B1 5.01365e-05
2 *236:A3 0.000199385
3 *234:X 0.000110967
4 *46:8 0.000360488
5 *236:A3 *236:B1 0.000241893
6 *236:A3 *82:14 0
7 *46:8 *87:45 7.02611e-05
8 *236:A1 *236:A3 0.000234598
9 *236:A1 *239:B1 0.000150625
10 *236:A2 *236:A3 2.89016e-05
11 *35:69 *236:A3 0.000153391
12 *35:69 *239:B1 7.48356e-05
*RES
1 *234:X *46:8 15.1571 
2 *46:8 *236:A3 19.7643 
3 *46:8 *239:B1 15.7464 
*END

*D_NET *47 0.00160088
*CONN
*I *236:B1 I *D sky130_fd_sc_hd__a31o_1
*I *235:X O *D sky130_fd_sc_hd__a22o_1
*CAP
1 *236:B1 0.000464952
2 *235:X 0.000464952
3 *236:B1 *235:A2 4.01768e-05
4 *236:B1 *274:CLK 0
5 *236:B1 *82:14 0.000270236
6 *236:A1 *236:B1 7.43578e-06
7 *236:A2 *236:B1 1.21258e-05
8 *236:A3 *236:B1 0.000241893
9 *274:D *236:B1 9.91086e-05
*RES
1 *235:X *236:B1 36.2786 
*END

*D_NET *48 0.00174757
*CONN
*I *238:A I *D sky130_fd_sc_hd__inv_2
*I *241:A1 I *D sky130_fd_sc_hd__a21oi_1
*I *240:A1 I *D sky130_fd_sc_hd__o21ai_1
*I *237:Y O *D sky130_fd_sc_hd__xnor2_2
*CAP
1 *238:A 0.000303865
2 *241:A1 0
3 *240:A1 0.000125017
4 *237:Y 0
5 *48:21 0.000423276
6 *48:4 0.000244427
7 *238:A *241:A2 5.71472e-05
8 *238:A *88:25 0.000236814
9 *240:A1 *241:A2 0.000141409
10 *240:A1 *50:10 1.02504e-05
11 *240:A1 *88:25 1.21258e-05
12 *48:21 *241:A2 6.57914e-05
13 *35:69 *240:A1 0.000127446
*RES
1 *237:Y *48:4 9.3 
2 *48:4 *240:A1 20.8893 
3 *48:4 *48:21 1.78571 
4 *48:21 *241:A1 9.3 
5 *48:21 *238:A 15.1929 
*END

*D_NET *49 0.000642722
*CONN
*I *244:A1 I *D sky130_fd_sc_hd__o31ai_4
*I *238:Y O *D sky130_fd_sc_hd__inv_2
*CAP
1 *244:A1 0.000210874
2 *238:Y 0.000210874
3 *244:A1 *225:B 7.17836e-05
4 *244:A1 *243:A2 4.25809e-05
5 *244:A1 *83:78 0
6 *244:A1 *84:42 0.000101233
7 *244:A3 *244:A1 5.37741e-06
*RES
1 *238:Y *244:A1 31.975 
*END

*D_NET *50 0.00137661
*CONN
*I *241:A2 I *D sky130_fd_sc_hd__a21oi_1
*I *240:A2 I *D sky130_fd_sc_hd__o21ai_1
*I *239:Y O *D sky130_fd_sc_hd__o21ai_1
*CAP
1 *241:A2 0.00010783
2 *240:A2 0
3 *239:Y 8.74587e-05
4 *50:10 0.000195289
5 *241:A2 *88:25 0.000227532
6 *50:10 *82:14 5.71472e-05
7 *236:A1 *50:10 0.000125731
8 *238:A *241:A2 5.71472e-05
9 *240:A1 *241:A2 0.000141409
10 *240:A1 *50:10 1.02504e-05
11 *35:69 *241:A2 2.82057e-05
12 *35:69 *50:10 7.48356e-05
13 *36:42 *241:A2 0.00017309
14 *36:42 *50:10 2.48938e-05
15 *48:21 *241:A2 6.57914e-05
*RES
1 *239:Y *50:10 16.2821 
2 *50:10 *240:A2 13.8 
3 *50:10 *241:A2 18.2286 
*END

*D_NET *51 0.000221827
*CONN
*I *241:B1 I *D sky130_fd_sc_hd__a21oi_1
*I *240:Y O *D sky130_fd_sc_hd__o21ai_1
*CAP
1 *241:B1 5.96411e-05
2 *240:Y 5.96411e-05
3 *241:B1 *83:78 0
4 *36:42 *241:B1 0.000102545
*RES
1 *240:Y *241:B1 28.9393 
*END

*D_NET *52 0.00119556
*CONN
*I *242:C1 I *D sky130_fd_sc_hd__a221o_1
*I *241:Y O *D sky130_fd_sc_hd__a21oi_1
*CAP
1 *242:C1 0.000258785
2 *241:Y 0.000258785
3 *242:C1 *84:12 9.24491e-05
4 *242:C1 *88:25 0.000309273
5 *242:C1 *88:35 0.00027627
*RES
1 *241:Y *242:C1 33.6714 
*END

*D_NET *53 0.00188087
*CONN
*I *244:B1 I *D sky130_fd_sc_hd__o31ai_4
*I *243:Y O *D sky130_fd_sc_hd__o21bai_1
*CAP
1 *244:B1 0.000225966
2 *243:Y 0.000225966
3 *244:B1 *225:B 3.2534e-05
4 *244:B1 *247:A 0.00069535
5 *244:B1 *247:B 0.000485353
6 *244:B1 *249:B 3.41517e-06
7 *244:B1 *57:18 0.000109743
8 *244:B1 *83:78 0.000102545
*RES
1 *243:Y *244:B1 36.3679 
*END

*D_NET *54 0.00187992
*CONN
*I *262:A1 I *D sky130_fd_sc_hd__a31o_1
*I *310:A I *D sky130_fd_sc_hd__clkbuf_1
*I *244:Y O *D sky130_fd_sc_hd__o31ai_4
*CAP
1 *262:A1 0.000211275
2 *310:A 6.71859e-05
3 *244:Y 0.000169438
4 *54:8 0.000447899
5 *262:A1 *254:A 1.34631e-05
6 *262:A1 *262:A2 3.08664e-05
7 *310:A *84:42 0.000272744
8 *310:A *96:12 4.35482e-05
9 *54:8 *315:A 0.000191969
10 *280:A *310:A 9.87617e-05
11 *280:A *54:8 0.000332771
*RES
1 *244:Y *54:8 18.4786 
2 *54:8 *310:A 16.3893 
3 *54:8 *262:A1 17.425 
*END

*D_NET *55 0.00391074
*CONN