*SPEF "ieee 1481-1999"
*DESIGN "counter"
*DATE "12:46:33 Wednesday December 04, 2024"
*VENDOR "The OpenROAD Project"
*PROGRAM "OpenROAD"
*VERSION "b16bda7e82721d10566ff7e2b68f1ff0be9f9e38"
*DESIGN_FLOW "NAME_SCOPE LOCAL" "PIN_CAP NONE"
*DIVIDER /
*DELIMITER :
*BUS_DELIMITER []
*T_UNIT 1 NS
*C_UNIT 1 PF
*R_UNIT 1 OHM
*L_UNIT 1 HENRY

*NAME_MAP
*3 clk
*4 count[0]
*5 count[1]
*6 count[2]
*7 count[3]
*8 count[4]
*9 count[5]
*10 count[6]
*11 count[7]
*12 data[0]
*13 data[1]
*14 data[2]
*15 data[3]
*16 data[4]
*17 data[5]
*18 data[6]
*19 data[7]
*20 enable
*21 preload
*22 resetn
*23 up_down
*24 _000_
*25 _001_
*26 _002_
*27 _003_
*28 _004_
*29 _005_
*30 _006_
*31 _007_
*32 _008_
*33 _009_
*34 _010_
*35 _011_
*36 _012_
*37 _013_
*38 _014_
*39 _015_
*40 _016_
*41 _017_
*42 _018_
*43 _019_
*44 _020_
*45 _021_
*46 _022_
*47 _023_
*48 _024_
*49 _025_
*50 _026_
*51 _027_
*52 _028_
*53 _029_
*54 _030_
*55 _031_
*56 _032_
*57 _033_
*58 _034_
*59 _035_
*60 _036_
*61 _037_
*62 _038_
*63 _039_
*64 _040_
*65 _041_
*66 _042_
*67 _043_
*68 _044_
*69 _045_
*70 _046_
*71 _047_
*72 _048_
*73 _049_
*74 _050_
*75 _051_
*76 _052_
*77 _053_
*78 clknet_0_clk
*79 clknet_1_0__leaf_clk
*80 clknet_1_1__leaf_clk
*81 net1
*82 net10
*83 net11
*84 net12
*85 net13
*86 net14
*87 net15
*88 net16
*89 net17
*90 net18
*91 net19
*92 net2
*93 net20
*94 net21
*95 net22
*96 net23
*97 net3
*98 net4
*99 net5
*100 net6
*101 net7
*102 net8
*103 net9
*104 FILLER_0_0_15
*105 FILLER_0_0_27
*106 FILLER_0_0_29
*107 FILLER_0_0_3
*108 FILLER_0_0_37
*109 FILLER_0_0_51
*110 FILLER_0_0_64
*111 FILLER_0_10_19
*112 FILLER_0_10_27
*113 FILLER_0_10_29
*114 FILLER_0_10_33
*115 FILLER_0_10_62
*116 FILLER_0_11_30
*117 FILLER_0_11_57
*118 FILLER_0_11_69
*119 FILLER_0_11_7
*120 FILLER_0_11_77
*121 FILLER_0_12_15
*122 FILLER_0_12_27
*123 FILLER_0_12_29
*124 FILLER_0_12_3
*125 FILLER_0_12_37
*126 FILLER_0_12_44
*127 FILLER_0_12_48
*128 FILLER_0_12_57
*129 FILLER_0_12_69
*130 FILLER_0_12_77
*131 FILLER_0_1_51
*132 FILLER_0_1_55
*133 FILLER_0_1_57
*134 FILLER_0_2_15
*135 FILLER_0_2_23
*136 FILLER_0_2_27
*137 FILLER_0_2_29
*138 FILLER_0_2_35
*139 FILLER_0_2_65
*140 FILLER_0_2_7
*141 FILLER_0_2_73
*142 FILLER_0_3_17
*143 FILLER_0_3_26
*144 FILLER_0_3_30
*145 FILLER_0_3_43
*146 FILLER_0_3_51
*147 FILLER_0_3_55
*148 FILLER_0_3_61
*149 FILLER_0_3_67
*150 FILLER_0_3_76
*151 FILLER_0_4_19
*152 FILLER_0_4_25
*153 FILLER_0_4_29
*154 FILLER_0_4_37
*155 FILLER_0_4_54
*156 FILLER_0_4_69
*157 FILLER_0_4_7
*158 FILLER_0_5_10
*159 FILLER_0_5_21
*160 FILLER_0_5_38
*161 FILLER_0_5_57
*162 FILLER_0_6_10
*163 FILLER_0_6_22
*164 FILLER_0_6_29
*165 FILLER_0_6_52
*166 FILLER_0_7_31
*167 FILLER_0_7_35
*168 FILLER_0_7_57
*169 FILLER_0_8_13
*170 FILLER_0_8_25
*171 FILLER_0_8_29
*172 FILLER_0_8_33
*173 FILLER_0_8_37
*174 FILLER_0_8_41
*175 FILLER_0_8_6
*176 FILLER_0_8_72
*177 FILLER_0_9_11
*178 FILLER_0_9_20
*179 FILLER_0_9_26
*180 FILLER_0_9_3
*181 FILLER_0_9_53
*182 FILLER_0_9_57
*183 FILLER_0_9_70
*184 FILLER_0_9_74
*185 PHY_EDGE_ROW_0_Left_13
*186 PHY_EDGE_ROW_0_Right_0
*187 PHY_EDGE_ROW_10_Left_23
*188 PHY_EDGE_ROW_10_Right_10
*189 PHY_EDGE_ROW_11_Left_24
*190 PHY_EDGE_ROW_11_Right_11
*191 PHY_EDGE_ROW_12_Left_25
*192 PHY_EDGE_ROW_12_Right_12
*193 PHY_EDGE_ROW_1_Left_14
*194 PHY_EDGE_ROW_1_Right_1
*195 PHY_EDGE_ROW_2_Left_15
*196 PHY_EDGE_ROW_2_Right_2
*197 PHY_EDGE_ROW_3_Left_16
*198 PHY_EDGE_ROW_3_Right_3
*199 PHY_EDGE_ROW_4_Left_17
*200 PHY_EDGE_ROW_4_Right_4
*201 PHY_EDGE_ROW_5_Left_18
*202 PHY_EDGE_ROW_5_Right_5
*203 PHY_EDGE_ROW_6_Left_19
*204 PHY_EDGE_ROW_6_Right_6
*205 PHY_EDGE_ROW_7_Left_20
*206 PHY_EDGE_ROW_7_Right_7
*207 PHY_EDGE_ROW_8_Left_21
*208 PHY_EDGE_ROW_8_Right_8
*209 PHY_EDGE_ROW_9_Left_22
*210 PHY_EDGE_ROW_9_Right_9
*211 TAP_TAPCELL_ROW_0_26
*212 TAP_TAPCELL_ROW_0_27
*213 TAP_TAPCELL_ROW_10_37
*214 TAP_TAPCELL_ROW_11_38
*215 TAP_TAPCELL_ROW_12_39
*216 TAP_TAPCELL_ROW_12_40
*217 TAP_TAPCELL_ROW_1_28
*218 TAP_TAPCELL_ROW_2_29
*219 TAP_TAPCELL_ROW_3_30
*220 TAP_TAPCELL_ROW_4_31
*221 TAP_TAPCELL_ROW_5_32
*222 TAP_TAPCELL_ROW_6_33
*223 TAP_TAPCELL_ROW_7_34
*224 TAP_TAPCELL_ROW_8_35
*225 TAP_TAPCELL_ROW_9_36
*226 _054_
*227 _055_
*228 _056_
*229 _057_
*230 _058_
*231 _059_
*232 _060_
*233 _061_
*234 _062_
*235 _063_
*236 _064_
*237 _065_
*238 _066_
*239 _067_
*240 _068_
*241 _069_
*242 _070_
*243 _071_
*244 _072_
*245 _073_
*246 _074_
*247 _075_
*248 _076_
*249 _077_
*250 _078_
*251 _079_
*252 _080_
*253 _081_
*254 _082_
*255 _083_
*256 _084_
*257 _085_
*258 _086_
*259 _087_
*260 _088_
*261 _089_
*262 _090_
*263 _091_
*264 _092_
*265 _093_
*266 _094_
*267 _095_
*268 _096_
*269 _097_
*270 _098_
*271 _099_
*272 _100_
*273 _101_
*274 _102_
*275 _103_
*276 _104_
*277 _105_
*278 _106_
*279 _107_
*280 _108_
*281 _109_
*282 _110_
*283 _111_
*284 _112_
*285 _113_
*286 _114_
*287 _115_
*288 clkbuf_0_clk
*289 clkbuf_1_0__f_clk
*290 clkbuf_1_1__f_clk
*291 clkload0
*292 fanout21
*293 hold1
*294 hold2
*295 input1
*296 input10
*297 input11
*298 input12
*299 input2
*300 input3
*301 input4
*302 input5
*303 input6
*304 input7
*305 input8
*306 input9
*307 output13
*308 output14
*309 output15
*310 output16
*311 output17
*312 output18
*313 output19
*314 output20

*PORTS
clk I
count[0] O
count[1] O
count[2] O
count[3] O
count[4] O
count[5] O
count[6] O
count[7] O
data[0] I
data[1] I
data[2] I
data[3] I
data[4] I
data[5] I
data[6] I
data[7] I
enable I
preload I
resetn I
up_down I

*D_NET *3 0.00506819
*CONN
*P clk I
*I *288:A I *D sky130_fd_sc_hd__clkbuf_16
*CAP
1 clk 0.00217191
2 *288:A 0
3 *3:13 0.00217191
4 *3:13 count[2] 1.5289e-05
5 *3:13 count[3] 0
6 *3:13 *270:A2 0.000181952
7 *3:13 *6:14 1.59585e-05
8 *3:13 *21:17 3.12475e-05
9 *3:13 *38:8 2.59343e-05
10 *3:13 *55:8 5.119e-05
11 *3:13 *55:18 4.42688e-05
12 *3:13 *57:10 0.000165583
13 *3:13 *61:20 9.28739e-05
14 *3:13 *78:14 0
15 *3:13 *80:16 0.000100061
16 *3:13 *80:24 0
17 *3:13 *94:66 0
*RES
1 clk *3:13 39.0986 
2 *3:13 *288:A 23 
*END

*D_NET *4 0.00114954
*CONN
*P count[0] O
*I *307:X O *D sky130_fd_sc_hd__buf_2
*CAP
1 count[0] 0.000502046
2 *307:X 0.000502046
3 count[0] *22:11 0.000122668
4 count[0] *33:10 2.2781e-05
*RES
1 *307:X count[0] 48.4702 
*END

*D_NET *5 0.00099308
*CONN
*P count[1] O
*I *308:X O *D sky130_fd_sc_hd__buf_2
*CAP
1 count[1] 0.000463239
2 *308:X 0.000463239
3 count[1] *238:A1 5.67058e-05
4 count[1] *299:A 0
5 count[1] *35:88 9.8971e-06
*RES
1 *308:X count[1] 47.0936 
*END

*D_NET *6 0.000676914
*CONN
*P count[2] O
*I *309:X O *D sky130_fd_sc_hd__buf_2
*CAP
1 count[2] 8.68308e-05
2 *309:X 0.000236002
3 *6:14 0.000322833
4 *3:13 count[2] 1.5289e-05
5 *3:13 *6:14 1.59585e-05
*RES
1 *309:X *6:14 49.9 
2 *6:14 count[2] 0.382667 
*END

*D_NET *7 0.000539909
*CONN
*P count[3] O
*I *310:X O *D sky130_fd_sc_hd__buf_2
*CAP
1 count[3] 0.000221034
2 *310:X 0.000221034
3 count[3] *15:15 4.40799e-05
4 count[3] *21:17 2.12457e-05
5 count[3] *82:14 2.26497e-05
6 count[3] *88:16 9.86551e-06
7 *3:13 count[3] 0
*RES
1 *310:X count[3] 47.1648 
*END

*D_NET *8 0.000672088
*CONN
*P count[4] O
*I *311:X O *D sky130_fd_sc_hd__buf_2
*CAP
1 count[4] 0.000269057
2 *311:X 0.000269057
3 count[4] count[5] 0
4 count[4] *302:A 0
5 count[4] *303:A 7.1481e-05
6 count[4] *20:11 6.2493e-05
7 count[4] *83:30 0
*RES
1 *311:X count[4] 48.4875 
*END

*D_NET *9 0.000558832
*CONN
*P count[5] O
*I *312:X O *D sky130_fd_sc_hd__buf_2
*CAP
1 count[5] 0.000244861
2 *312:X 0.000244861
3 count[5] *303:A 6.91091e-05
4 count[5] *82:43 0
5 count[4] count[5] 0
*RES
1 *312:X count[5] 47.7832 
*END

*D_NET *10 0.0010956
*CONN
*P count[6] O
*I *313:X O *D sky130_fd_sc_hd__clkbuf_4
*CAP
1 count[6] 0.000547799
2 *313:X 0.000547799
3 count[6] *304:A 0
*RES
1 *313:X count[6] 49.4964 
*END

*D_NET *11 0.000627835
*CONN
*P count[7] O
*I *314:X O *D sky130_fd_sc_hd__buf_2
*CAP
1 count[7] 0.000258663
2 *314:X 0.000258663
3 count[7] *19:17 5.08354e-05
4 count[7] *82:31 9.86551e-06
5 count[7] *93:12 4.9808e-05
*RES
1 *314:X count[7] 47.5169 
*END

*D_NET *12 0.00259655
*CONN
*P data[0] I
*I *295:A I *D sky130_fd_sc_hd__clkbuf_1
*CAP
1 data[0] 0.00110744
2 *295:A 0
3 *12:15 0.00110744
4 *12:15 *227:A 6.26126e-05
5 *12:15 *237:A1 0.000131087
6 *12:15 *24:10 4.06512e-05
7 *12:15 *32:12 0
8 *12:15 *33:10 5.47927e-05
9 *12:15 *79:8 1.94812e-05
10 *12:15 *82:121 6.6869e-05
11 *12:15 *83:8 6.17437e-06
*RES
1 data[0] *12:15 37.2886 
2 *12:15 *295:A 23 
*END

*D_NET *13 0.00119861
*CONN
*P data[1] I
*I *299:A I *D sky130_fd_sc_hd__clkbuf_1
*CAP
1 data[1] 0.000525491
2 *299:A 0.000525491
3 *299:A *231:B1 1.37232e-05
4 *299:A *238:A1 5.50106e-05
5 *299:A *238:B1 7.88926e-05
6 count[1] *299:A 0
*RES
1 data[1] *299:A 49.1857 
*END

*D_NET *14 0.00121595
*CONN
*P data[2] I
*I *300:A I *D sky130_fd_sc_hd__clkbuf_1
*CAP
1 data[2] 0.000494637
2 *300:A 0.000494637
3 *300:A *243:A2 1.94812e-05
4 *300:A *243:B1 0
5 *300:A *35:75 1.01436e-05
6 *300:A *35:88 0.00014196
7 *300:A *82:111 1.94418e-05
8 *300:A *82:117 3.56537e-05
*RES
1 data[2] *300:A 49.1236 
*END

*D_NET *15 0.00116051
*CONN
*P data[3] I
*I *301:A I *D sky130_fd_sc_hd__clkbuf_1
*CAP
1 data[3] 0.000499189
2 *301:A 0
3 *15:15 0.000499189
4 *15:15 *298:A 3.12475e-05
5 *15:15 *19:17 0
6 *15:15 *35:69 3.71369e-05
7 *15:15 *82:14 0
8 *15:15 *98:10 4.9662e-05
9 count[3] *15:15 4.40799e-05
*RES
1 data[3] *15:15 31.2548 
2 *15:15 *301:A 23 
*END

*D_NET *16 0.000736458
*CONN
*P data[4] I
*I *302:A I *D sky130_fd_sc_hd__clkbuf_1
*CAP
1 data[4] 0.000292809
2 *302:A 0.000292809
3 *302:A *20:11 0.000100854
4 *302:A *22:11 0
5 *302:A *83:17 4.99857e-05
6 count[4] *302:A 0
*RES
1 data[4] *302:A 48.3071 
*END

*D_NET *17 0.000698672
*CONN
*P data[5] I
*I *303:A I *D sky130_fd_sc_hd__clkbuf_1
*CAP
1 data[5] 0.000279041
2 *303:A 0.000279041
3 *303:A *258:B1 0
4 *303:A *35:25 0
5 count[4] *303:A 7.1481e-05
6 count[5] *303:A 6.91091e-05
*RES
1 data[5] *303:A 49.4581 
*END

*D_NET *18 0.00112642
*CONN
*P data[6] I
*I *304:A I *D sky130_fd_sc_hd__clkbuf_1
*CAP
1 data[6] 0.00056321
2 *304:A 0.00056321
3 count[6] *304:A 0
*RES
1 data[6] *304:A 49.7864 
*END

*D_NET *19 0.00163287
*CONN
*P data[7] I
*I *305:A I *D sky130_fd_sc_hd__clkbuf_1
*CAP
1 data[7] 0.000668094
2 *305:A 0
3 *19:17 0.000668094
4 *19:17 *276:A 0.000125488
5 *19:17 *276:B 3.74492e-05
6 *19:17 *277:B 1.5769e-05
7 *19:17 *287:RESET_B 4.58924e-05
8 *19:17 *298:A 2.12457e-05
9 *19:17 *82:18 0
10 *19:17 *82:31 0
11 count[7] *19:17 5.08354e-05
12 *15:15 *19:17 0
*RES
1 data[7] *19:17 46.5892 
2 *19:17 *305:A 38 
*END

*D_NET *20 0.00100341
*CONN
*P enable I
*I *306:A I *D sky130_fd_sc_hd__buf_1
*CAP
1 enable 0.000383834
2 *306:A 0
3 *20:11 0.000383834
4 *20:11 *83:17 0
5 *20:11 *83:30 0
6 *20:11 *89:10 7.23898e-05
7 count[4] *20:11 6.2493e-05
8 *302:A *20:11 0.000100854
*RES
1 enable *20:11 28.5709 
2 *20:11 *306:A 23 
*END

*D_NET *21 0.000668693
*CONN
*P preload I
*I *296:A I *D sky130_fd_sc_hd__buf_2
*CAP
1 preload 0.000305012
2 *296:A 0
3 *21:17 0.000305012
4 *21:17 *82:14 6.17437e-06
5 count[3] *21:17 2.12457e-05
6 *3:13 *21:17 3.12475e-05
*RES
1 preload *21:17 27.1584 
2 *21:17 *296:A 23 
*END

*D_NET *22 0.00145386
*CONN
*P resetn I
*I *293:A I *D sky130_fd_sc_hd__dlygate4sd3_1
*CAP
1 resetn 0.000587911
2 *293:A 0
3 *22:11 0.000587911
4 *22:11 *280:RESET_B 0.000155369
5 *22:11 *33:10 0
6 *22:11 *37:8 0
7 *22:11 *85:14 0
8 count[0] *22:11 0.000122668
9 *302:A *22:11 0
*RES
1 resetn *22:11 29.4383 
2 *22:11 *293:A 23 
*END

*D_NET *23 0.000618938
*CONN
*P up_down I
*I *298:A I *D sky130_fd_sc_hd__buf_1
*CAP
1 up_down 0.000283223
2 *298:A 0.000283223
3 *15:15 *298:A 3.12475e-05
4 *19:17 *298:A 2.12457e-05
*RES
1 up_down *298:A 49.8062 
*END

*D_NET *24 0.00068952
*CONN
*I *280:D I *D sky130_fd_sc_hd__dfrtp_1
*I *232:Y O *D sky130_fd_sc_hd__a21oi_1
*CAP
1 *280:D 0
2 *232:Y 0.000228049
3 *24:10 0.000228049
4 *24:10 *237:A1 1.01436e-05
5 *24:10 *36:33 0
6 *24:10 *37:8 0.000163158
7 *24:10 *96:6 1.94693e-05
8 *12:15 *24:10 4.06512e-05
*RES
1 *232:Y *24:10 42.9921 
2 *24:10 *280:D 38 
*END

*D_NET *25 0.000587271
*CONN
*I *281:D I *D sky130_fd_sc_hd__dfrtp_1
*I *238:X O *D sky130_fd_sc_hd__a21o_1
*CAP
1 *281:D 0
2 *238:X 0.00014117
3 *25:10 0.00014117
4 *25:10 *35:88 9.88259e-05
5 *25:10 *40:8 6.93449e-05
6 *25:10 *86:38 0.000136761
*RES
1 *238:X *25:10 41.0036 
2 *25:10 *281:D 38 
*END

*D_NET *26 0.000665278
*CONN
*I *282:D I *D sky130_fd_sc_hd__dfrtp_2
*I *244:X O *D sky130_fd_sc_hd__a31o_1
*CAP
1 *282:D 0
2 *244:X 0.000249383
3 *26:10 0.000249383
4 *26:10 *36:46 2.45549e-06
5 *26:10 *47:10 0.000110913
6 *26:10 *82:111 5.31444e-05
*RES
1 *244:X *26:10 41.6043 
2 *26:10 *282:D 38 
*END

*D_NET *27 0.00162163
*CONN
*I *283:D I *D sky130_fd_sc_hd__dfrtp_1
*I *250:X O *D sky130_fd_sc_hd__a221o_1
*CAP
1 *283:D 0
2 *250:X 0.000614041
3 *27:8 0.000614041
4 *27:8 *250:A2 1.46586e-05
5 *27:8 *250:C1 0.000162019
6 *27:8 *35:61 1.40958e-05
7 *27:8 *82:14 6.71585e-05
8 *27:8 *88:6 5.12254e-05
9 *27:8 *88:12 7.15126e-05
10 *27:8 *88:57 1.28818e-05
*RES
1 *250:X *27:8 35.0764 
2 *27:8 *283:D 23 
*END

*D_NET *28 0.000846356
*CONN
*I *284:D I *D sky130_fd_sc_hd__dfrtp_1
*I *259:X O *D sky130_fd_sc_hd__a31o_1
*CAP
1 *284:D 0
2 *259:X 0.00030381
3 *28:10 0.00030381
4 *28:10 *259:A2 1.57571e-05
5 *28:10 *259:B1 3.22879e-05
6 *28:10 *265:A1 4.31263e-05
7 *28:10 *36:14 8.21264e-06
8 *28:10 *36:25 0.000139352
9 *28:10 *36:96 0
*RES
1 *259:X *28:10 42.9093 
2 *28:10 *284:D 38 
*END

*D_NET *29 0.000363619
*CONN
*I *285:D I *D sky130_fd_sc_hd__dfrtp_1
*I *265:X O *D sky130_fd_sc_hd__a31o_1
*CAP
1 *285:D 0
2 *265:X 0.000138322
3 *29:10 0.000138322
4 *29:10 *265:A2 6.6869e-05
5 *29:10 *36:96 0
6 *29:10 *80:12 2.76611e-06
7 *29:10 *89:29 1.73399e-05
*RES
1 *265:X *29:10 40.5271 
2 *29:10 *285:D 38 
*END

*D_NET *30 0.00222126
*CONN
*I *286:D I *D sky130_fd_sc_hd__dfrtp_1
*I *274:X O *D sky130_fd_sc_hd__a31o_1
*CAP
1 *286:D 5.93313e-05
2 *274:X 0.000518392
3 *30:10 0.000577723
4 *286:D *263:B 4.37586e-06
5 *286:D *286:CLK 8.82053e-06
6 *30:10 *274:B1 0.000225393
7 *30:10 *36:96 0.000534355
8 *30:10 *80:8 0.000292865
9 *30:10 *90:48 0
*RES
1 *274:X *30:10 48.7921 
2 *30:10 *286:D 38.6836 
*END

*D_NET *31 0.00156288
*CONN
*I *287:D I *D sky130_fd_sc_hd__dfrtp_1
*I *279:X O *D sky130_fd_sc_hd__a21o_1
*CAP
1 *287:D 0
2 *279:X 0.00049354
3 *31:10 0.00049354
4 *31:10 *35:53 0.000575797
5 *31:10 *80:24 0
*RES
1 *279:X *31:10 46.2443 
2 *31:10 *287:D 38 
*END

*D_NET *32 0.00321565
*CONN
*I *231:B2 I *D sky130_fd_sc_hd__a22o_1
*I *239:A1 I *D sky130_fd_sc_hd__o21a_1
*I *236:A1 I *D sky130_fd_sc_hd__o21a_1
*I *235:A I *D sky130_fd_sc_hd__nand2_1
*I *226:Y O *D sky130_fd_sc_hd__inv_2
*CAP
1 *231:B2 5.3018e-05
2 *239:A1 0
3 *236:A1 0
4 *235:A 2.12599e-05
5 *226:Y 0
6 *32:34 0.000248771
7 *32:16 0.000220893
8 *32:12 0.000944223
9 *32:4 0.000548837
10 *231:B2 *226:A 6.29487e-05
11 *231:B2 *231:B1 0.000149562
12 *235:A *235:B 5.67058e-05
13 *32:12 *36:33 0.000150242
14 *32:12 *41:10 0
15 *32:12 *42:8 0
16 *32:12 *92:10 0
17 *32:16 *235:B 2.79512e-05
18 *32:16 *236:B1 4.00259e-06
19 *32:16 *36:33 0.000148456
20 *32:16 *36:46 2.69729e-05
21 *32:16 *41:10 0.000140729
22 *32:34 *36:27 0
23 *32:34 *36:33 0
24 *32:34 *39:38 0.00035793
25 *32:34 *79:12 4.18957e-05
26 *32:34 *79:43 1.12487e-05
27 *12:15 *32:12 0
*RES
1 *226:Y *32:4 23 
2 *32:4 *32:12 38.7829 
3 *32:12 *32:16 4.93 
4 *32:16 *235:A 23.6214 
5 *32:16 *236:A1 23 
6 *32:12 *32:34 36.1314 
7 *32:34 *239:A1 23 
8 *32:4 *231:B2 25.0714 
*END

*D_NET *33 0.00125081
*CONN
*I *231:A2 I *D sky130_fd_sc_hd__a22o_1
*I *227:Y O *D sky130_fd_sc_hd__inv_2
*CAP
1 *231:A2 7.35851e-05
2 *227:Y 0.000343126
3 *33:10 0.000416711
4 *231:A2 *226:A 0.000185428
5 *33:10 *237:A1 0
6 *33:10 *37:8 0.000154385
7 *33:10 *82:121 0
8 count[0] *33:10 2.2781e-05
9 *12:15 *33:10 5.47927e-05
10 *22:11 *33:10 0
*RES
1 *227:Y *33:10 44.6493 
2 *33:10 *231:A2 40.0507 
*END

*D_NET *34 0.000420622
*CONN
*I *247:A2 I *D sky130_fd_sc_hd__o21ai_1
*I *228:Y O *D sky130_fd_sc_hd__inv_2
*CAP
1 *247:A2 3.13942e-05
2 *228:Y 3.13942e-05
3 *247:A2 *247:B1 9.84794e-05
4 *247:A2 *44:12 0.000185428
5 *247:A2 *87:43 7.39261e-05
*RES
1 *228:Y *247:A2 48.0507 
*END

*D_NET *35 0.019303
*CONN
*I *264:B1 I *D sky130_fd_sc_hd__a22o_1
*I *273:B1 I *D sky130_fd_sc_hd__a22o_1
*I *278:B1 I *D sky130_fd_sc_hd__a22o_1
*I *250:B1 I *D sky130_fd_sc_hd__a221o_1
*I *231:B1 I *D sky130_fd_sc_hd__a22o_1
*I *237:B1 I *D sky130_fd_sc_hd__a22o_1
*I *243:B1 I *D sky130_fd_sc_hd__a22o_1
*I *258:B1 I *D sky130_fd_sc_hd__a22o_1
*I *229:Y O *D sky130_fd_sc_hd__nor2_2
*CAP
1 *264:B1 0
2 *273:B1 0
3 *278:B1 0
4 *250:B1 0
5 *231:B1 0.000473952
6 *237:B1 0
7 *243:B1 9.90354e-05
8 *258:B1 0.000184914
9 *229:Y 4.98298e-05
10 *35:138 0.00043033
11 *35:96 0.000191709
12 *35:88 0.00124473
13 *35:75 0.00152602
14 *35:69 0.00152837
15 *35:61 0.00107467
16 *35:53 0.00110609
17 *35:43 0.00183055
18 *35:25 0.000919888
19 *35:8 0.000466286
20 *231:B1 *226:A 2.98648e-05
21 *231:B1 *238:B1 0.0002134
22 *231:B1 *92:10 9.84794e-05
23 *243:B1 *243:A2 2.8936e-05
24 *243:B1 *47:10 2.32004e-05
25 *258:B1 *82:45 2.04774e-05
26 *258:B1 *83:30 0.000302339
27 *258:B1 *103:19 0.000434074
28 *35:25 *264:A1 2.4754e-05
29 *35:25 *65:10 9.91895e-05
30 *35:25 *82:45 4.83941e-05
31 *35:25 *90:40 4.7812e-06
32 *35:25 *100:8 0.000182826
33 *35:43 *68:14 0.000141215
34 *35:43 *70:28 3.63177e-05
35 *35:43 *70:34 7.12802e-05
36 *35:43 *71:10 0.000380682
37 *35:43 *78:27 0.000212659
38 *35:43 *82:39 0.00054201
39 *35:43 *82:43 4.16764e-05
40 *35:43 *82:45 1.44546e-05
41 *35:43 *90:48 0.000179451
42 *35:53 *276:B 1.47563e-05
43 *35:53 *278:A2 3.53115e-05
44 *35:53 *279:A2 2.93747e-05
45 *35:53 *279:B1 0.000220219
46 *35:53 *36:71 1.39431e-05
47 *35:53 *82:18 1.14452e-05
48 *35:53 *82:31 0.000108951
49 *35:53 *93:12 5.03449e-05
50 *35:61 *250:C1 1.37232e-05
51 *35:61 *276:B 9.63918e-05
52 *35:61 *82:14 5.50049e-05
53 *35:61 *82:18 0.000536721
54 *35:69 *82:14 0
55 *35:69 *82:18 1.01436e-05
56 *35:69 *88:12 0.000163352
57 *35:69 *88:16 6.70363e-05
58 *35:69 *88:57 4.4382e-05
59 *35:69 *94:8 0
60 *35:69 *94:10 0
61 *35:69 *94:41 0.000480242
62 *35:69 *98:10 3.82852e-05
63 *35:75 *252:A1 0.000287733
64 *35:75 *36:58 0.000163752
65 *35:75 *43:12 0.000137249
66 *35:75 *47:10 0.000354769
67 *35:75 *48:23 6.43149e-05
68 *35:75 *52:14 9.83743e-05
69 *35:75 *82:111 2.70469e-05
70 *35:75 *86:18 0
71 *35:88 *238:A1 8.444e-05
72 *35:88 *238:B1 5.79559e-05
73 *35:88 *243:A2 7.43025e-06
74 *35:88 *47:10 5.50106e-05
75 *35:96 *280:CLK 1.24376e-05
76 *35:96 *41:10 5.82008e-05
77 *35:96 *79:12 6.15719e-05
78 *35:96 *79:14 2.02872e-05
79 *35:138 *273:A1 7.51453e-06
80 *35:138 *273:B2 0.000100069
81 *35:138 *313:A 2.55642e-05
82 *35:138 *71:10 0.000189669
83 *35:138 *80:24 0
84 *35:138 *82:31 2.54749e-05
85 *35:138 *91:30 0.000166513
86 count[1] *35:88 9.8971e-06
87 *231:B2 *231:B1 0.000149562
88 *299:A *231:B1 1.37232e-05
89 *300:A *243:B1 0
90 *300:A *35:75 1.01436e-05
91 *300:A *35:88 0.00014196
92 *303:A *258:B1 0
93 *303:A *35:25 0
94 *15:15 *35:69 3.71369e-05
95 *25:10 *35:88 9.88259e-05
96 *27:8 *35:61 1.40958e-05
97 *31:10 *35:53 0.000575797
*RES
1 *229:Y *35:8 38.6214 
2 *35:8 *258:B1 44.4836 
3 *35:8 *35:25 20.7586 
4 *35:25 *35:43 48.9536 
5 *35:43 *35:53 31.1571 
6 *35:53 *35:61 23.7829 
7 *35:61 *35:69 41.6621 
8 *35:69 *35:75 45.9914 
9 *35:75 *243:B1 25.0714 
10 *35:75 *35:88 11.6 
11 *35:88 *35:96 33.2314 
12 *35:96 *237:B1 23 
13 *35:88 *231:B1 32.0107 
14 *35:61 *250:B1 23 
15 *35:53 *278:B1 38 
16 *35:43 *35:138 38.1614 
17 *35:138 *273:B1 23 
18 *35:25 *264:B1 23 
*END

*D_NET *36 0.011878
*CONN
*I *265:A1 I *D sky130_fd_sc_hd__a31o_1
*I *274:A1 I *D sky130_fd_sc_hd__a31o_1
*I *232:A2 I *D sky130_fd_sc_hd__a21oi_1
*I *244:A1 I *D sky130_fd_sc_hd__a31o_1
*I *279:A1 I *D sky130_fd_sc_hd__a21o_1
*I *248:B1 I *D sky130_fd_sc_hd__o21ai_1
*I *236:B1 I *D sky130_fd_sc_hd__o21a_1
*I *259:A1 I *D sky130_fd_sc_hd__a31o_1
*I *230:X O *D sky130_fd_sc_hd__and2b_2
*CAP
1 *265:A1 0.000164237
2 *274:A1 0
3 *232:A2 4.24211e-05
4 *244:A1 0
5 *279:A1 0
6 *248:B1 0
7 *236:B1 2.13625e-05
8 *259:A1 0
9 *230:X 0
10 *36:96 0.00107583
11 *36:71 0.000600014
12 *36:58 0.00104023
13 *36:46 0.00108074
14 *36:33 0.00100416
15 *36:27 0.000551426
16 *36:25 0.00130739
17 *36:14 0.000335727
18 *36:6 0.000435138
19 *265:A1 *230:A_N 0
20 *265:A1 *265:A2 1.14452e-05
21 *265:A1 *60:8 0.000102778
22 *265:A1 *82:47 0
23 *36:14 *259:B1 5.47808e-05
24 *36:14 *59:10 0
25 *36:14 *60:8 0
26 *36:14 *83:17 0
27 *36:25 *259:A2 5.41385e-05
28 *36:27 *37:8 0
29 *36:27 *59:10 3.70094e-05
30 *36:27 *79:62 0
31 *36:33 *37:8 0
32 *36:33 *39:38 8.53131e-05
33 *36:33 *79:8 0.000441978
34 *36:46 *235:B 0.00018701
35 *36:46 *39:38 0.000100069
36 *36:58 *282:RESET_B 3.30475e-05
37 *36:58 *45:10 0.000141869
38 *36:58 *46:17 2.24973e-05
39 *36:58 *48:23 0.000211736
40 *36:58 *52:14 0
41 *36:58 *82:111 5.11828e-05
42 *36:58 *87:55 0.000107538
43 *36:71 *282:RESET_B 0.000444111
44 *36:71 *287:RESET_B 0.000435013
45 *36:71 *48:23 1.19692e-05
46 *36:71 *52:14 0
47 *36:71 *76:8 2.54046e-05
48 *36:71 *83:44 0.000138708
49 *36:96 *262:B 0
50 *36:96 *265:A2 0
51 *36:96 *274:B1 3.22879e-05
52 *36:96 *59:10 0.000108681
53 *36:96 *62:10 0
54 *36:96 *71:10 0
55 *36:96 *78:27 0
56 *36:96 *80:8 2.34364e-05
57 *36:96 *80:12 0.000122407
58 *36:96 *89:53 0
59 *36:96 *90:25 0
60 *36:96 *101:10 0
61 *24:10 *36:33 0
62 *26:10 *36:46 2.45549e-06
63 *28:10 *265:A1 4.31263e-05
64 *28:10 *36:14 8.21264e-06
65 *28:10 *36:25 0.000139352
66 *28:10 *36:96 0
67 *29:10 *36:96 0
68 *30:10 *36:96 0.000534355
69 *32:12 *36:33 0.000150242
70 *32:16 *236:B1 4.00259e-06
71 *32:16 *36:33 0.000148456
72 *32:16 *36:46 2.69729e-05
73 *32:34 *36:27 0
74 *32:34 *36:33 0
75 *35:53 *36:71 1.39431e-05
76 *35:75 *36:58 0.000163752
*RES
1 *230:X *36:6 38 
2 *36:6 *36:14 20.1579 
3 *36:14 *259:A1 23 
4 *36:14 *36:25 17.0714 
5 *36:25 *36:27 3.31429 
6 *36:27 *36:33 24.7771 
7 *36:33 *236:B1 23.4971 
8 *36:33 *36:46 11.6207 
9 *36:46 *36:58 25.73 
10 *36:58 *248:B1 38 
11 *36:58 *36:71 29.1479 
12 *36:71 *279:A1 23 
13 *36:46 *244:A1 23 
14 *36:27 *232:A2 38.6214 
15 *36:25 *36:96 36.0871 
16 *36:96 *274:A1 23 
17 *36:6 *265:A1 43.3443 
*END

*D_NET *37 0.00138525
*CONN
*I *232:B1 I *D sky130_fd_sc_hd__a21oi_1
*I *231:X O *D sky130_fd_sc_hd__a22o_1
*CAP
1 *232:B1 7.03398e-05
2 *231:X 0.000360737
3 *37:8 0.000431077
4 *232:B1 *96:6 0.000141954
5 *37:8 *237:A1 6.36037e-05
6 *37:8 *280:RESET_B 0
7 *37:8 *83:17 0
8 *22:11 *37:8 0
9 *24:10 *37:8 0.000163158
10 *33:10 *37:8 0.000154385
11 *36:27 *37:8 0
12 *36:33 *37:8 0
*RES
1 *231:X *37:8 46.2443 
2 *37:8 *232:B1 39.5743 
*END

*D_NET *38 0.00108842
*CONN
*I *239:B1 I *D sky130_fd_sc_hd__o21a_1
*I *233:Y O *D sky130_fd_sc_hd__nand2b_1
*CAP
1 *239:B1 0.000193643
2 *233:Y 7.56939e-05
3 *38:8 0.000269337
4 *239:B1 *256:B 7.87147e-05
5 *239:B1 *43:8 0.000360716
6 *239:B1 *57:10 3.40939e-05
7 *38:8 *94:66 5.02859e-05
8 *3:13 *38:8 2.59343e-05
*RES
1 *233:Y *38:8 39.5536 
2 *38:8 *239:B1 43.4064 
*END

*D_NET *39 0.0027269
*CONN
*I *239:A2 I *D sky130_fd_sc_hd__o21a_1
*I *236:A2 I *D sky130_fd_sc_hd__o21a_1
*I *235:B I *D sky130_fd_sc_hd__nand2_1
*I *234:X O *D sky130_fd_sc_hd__xor2_1
*CAP
1 *239:A2 0
2 *236:A2 0
3 *235:B 0.000135801
4 *234:X 0.000220058
5 *39:38 0.000340669
6 *39:25 0.000340669
7 *39:10 0.000355859
8 *39:10 *234:A 1.40958e-05
9 *39:10 *234:B 8.0381e-05
10 *39:38 *79:8 5.50106e-05
11 *39:38 *79:43 0.000169674
12 *39:38 *79:62 0.000199701
13 *235:A *235:B 5.67058e-05
14 *32:16 *235:B 2.79512e-05
15 *32:34 *39:38 0.00035793
16 *36:33 *39:38 8.53131e-05
17 *36:46 *235:B 0.00018701
18 *36:46 *39:38 0.000100069
*RES
1 *234:X *39:10 41.2521 
2 *39:10 *235:B 41.3971 
3 *39:10 *39:25 15 
4 *39:25 *236:A2 23 
5 *39:25 *39:38 38.2029 
6 *39:38 *239:A2 23 
*END

*D_NET *40 0.00140853
*CONN
*I *238:A1 I *D sky130_fd_sc_hd__a21o_1
*I *235:Y O *D sky130_fd_sc_hd__nand2_1
*CAP
1 *238:A1 0.000268923
2 *235:Y 0.000267788
3 *40:8 0.000536711
4 *238:A1 *238:B1 1.41699e-05
5 *40:8 *79:12 0
6 *40:8 *86:38 5.54361e-05
7 count[1] *238:A1 5.67058e-05
8 *299:A *238:A1 5.50106e-05
9 *25:10 *40:8 6.93449e-05
10 *35:88 *238:A1 8.444e-05
*RES
1 *235:Y *40:8 43.4271 
2 *40:8 *238:A1 42.5986 
*END

*D_NET *41 0.00121013
*CONN
*I *238:A2 I *D sky130_fd_sc_hd__a21o_1
*I *236:X O *D sky130_fd_sc_hd__o21a_1
*CAP
1 *238:A2 0
2 *236:X 0.000319526
3 *41:10 0.000319526
4 *41:10 *42:8 1.44813e-05
5 *41:10 *79:12 0.000188916
6 *41:10 *92:10 0.000168754
7 *32:12 *41:10 0
8 *32:16 *41:10 0.000140729
9 *35:96 *41:10 5.82008e-05
*RES
1 *236:X *41:10 44.6493 
2 *41:10 *238:A2 38 
*END

*D_NET *42 0.000871918
*CONN
*I *238:B1 I *D sky130_fd_sc_hd__a21o_1
*I *237:X O *D sky130_fd_sc_hd__a22o_1
*CAP
1 *238:B1 0.000102033
2 *237:X 0.000124044
3 *42:8 0.000226077
4 *42:8 *92:10 4.08641e-05
5 *231:B1 *238:B1 0.0002134
6 *238:A1 *238:B1 1.41699e-05
7 *299:A *238:B1 7.88926e-05
8 *32:12 *42:8 0
9 *35:88 *238:B1 5.79559e-05
10 *41:10 *42:8 1.44813e-05
*RES
1 *237:X *42:8 39.9057 
2 *42:8 *238:B1 41.5007 
*END

*D_NET *43 0.00316285
*CONN
*I *252:A1 I *D sky130_fd_sc_hd__o31ai_2
*I *242:A I *D sky130_fd_sc_hd__or2_1
*I *241:A I *D sky130_fd_sc_hd__nand2_1
*I *239:X O *D sky130_fd_sc_hd__o21a_1
*CAP
1 *252:A1 0.000107532
2 *242:A 0.000118591
3 *241:A 0
4 *239:X 0.000710111
5 *43:12 0.000217215
6 *43:8 0.000916268
7 *242:A *242:B 1.09903e-05
8 *242:A *44:12 2.98648e-05
9 *242:A *44:23 3.4505e-05
10 *252:A1 *44:29 0.000151909
11 *43:8 *49:10 1.8501e-05
12 *43:12 *44:29 6.16643e-05
13 *239:B1 *43:8 0.000360716
14 *35:75 *252:A1 0.000287733
15 *35:75 *43:12 0.000137249
*RES
1 *239:X *43:8 47.6736 
2 *43:8 *43:12 16.9057 
3 *43:12 *241:A 23 
4 *43:12 *242:A 25.0714 
5 *43:8 *252:A1 42.0186 
*END

*D_NET *44 0.00237397
*CONN
*I *241:B I *D sky130_fd_sc_hd__nand2_1
*I *252:A2 I *D sky130_fd_sc_hd__o31ai_2
*I *242:B I *D sky130_fd_sc_hd__or2_1
*I *240:X O *D sky130_fd_sc_hd__xor2_1
*CAP
1 *241:B 0
2 *252:A2 0
3 *242:B 1.72574e-05
4 *240:X 0.000418047
5 *44:29 0.000245038
6 *44:23 0.000320327
7 *44:12 0.000510593
8 *44:12 *247:B1 7.16015e-05
9 *44:12 *45:10 0.000137651
10 *44:12 *87:43 4.95081e-05
11 *44:23 *233:A_N 0
12 *44:23 *45:10 4.79641e-05
13 *44:29 *49:10 8.16253e-05
14 *44:29 *94:66 0
15 *242:A *242:B 1.09903e-05
16 *242:A *44:12 2.98648e-05
17 *242:A *44:23 3.4505e-05
18 *247:A2 *44:12 0.000185428
19 *252:A1 *44:29 0.000151909
20 *43:12 *44:29 6.16643e-05
*RES
1 *240:X *44:12 30.4779 
2 *44:12 *242:B 23.4971 
3 *44:12 *44:23 2.07143 
4 *44:23 *44:29 35.7793 
5 *44:29 *252:A2 23 
6 *44:23 *241:B 23 
*END

*D_NET *45 0.000914771
*CONN
*I *244:A2 I *D sky130_fd_sc_hd__a31o_1
*I *241:Y O *D sky130_fd_sc_hd__nand2_1
*CAP
1 *244:A2 0
2 *241:Y 0.000222709
3 *45:10 0.000222709
4 *45:10 *46:17 0.000141869
5 *36:58 *45:10 0.000141869
6 *44:12 *45:10 0.000137651
7 *44:23 *45:10 4.79641e-05
*RES
1 *241:Y *45:10 42.4329 
2 *45:10 *244:A2 38 
*END

*D_NET *46 0.00105351
*CONN
*I *244:A3 I *D sky130_fd_sc_hd__a31o_1
*I *247:B1 I *D sky130_fd_sc_hd__o21ai_1
*I *242:X O *D sky130_fd_sc_hd__or2_1
*CAP
1 *244:A3 0
2 *247:B1 8.83689e-05
3 *242:X 0
4 *46:17 0.000103483
5 *46:4 0.000191852
6 *247:B1 *87:43 0.000141052
7 *46:17 *82:111 0.000194309
8 *247:A2 *247:B1 9.84794e-05
9 *36:58 *46:17 2.24973e-05
10 *44:12 *247:B1 7.16015e-05
11 *45:10 *46:17 0.000141869
*RES
1 *242:X *46:4 23 
2 *46:4 *247:B1 25.5271 
3 *46:4 *46:17 32.61 
4 *46:17 *244:A3 23 
*END

*D_NET *47 0.00110118
*CONN
*I *244:B1 I *D sky130_fd_sc_hd__a31o_1
*I *243:X O *D sky130_fd_sc_hd__a22o_1
*CAP
1 *244:B1 0
2 *243:X 0.000196199
3 *47:10 0.000196199
4 *47:10 *82:111 0.00016489
5 *243:B1 *47:10 2.32004e-05
6 *26:10 *47:10 0.000110913
7 *35:75 *47:10 0.000354769
8 *35:88 *47:10 5.50106e-05
*RES
1 *243:X *47:10 43.8207 
2 *47:10 *244:B1 38 
*END

*D_NET *48 0.00173803
*CONN
*I *249:A1 I *D sky130_fd_sc_hd__a21oi_1
*I *246:A I *D sky130_fd_sc_hd__inv_2
*I *248:A1 I *D sky130_fd_sc_hd__o21ai_1
*I *245:Y O *D sky130_fd_sc_hd__xnor2_1
*CAP
1 *249:A1 0
2 *246:A 0
3 *248:A1 0
4 *245:Y 0.000124926
5 *48:23 0.000222325
6 *48:15 0.000307165
7 *48:8 0.000209766
8 *48:8 *249:A2 1.14154e-05
9 *48:8 *251:A2 0.000189439
10 *48:8 *50:12 1.24376e-05
11 *48:15 *249:A2 8.85951e-05
12 *48:15 *249:B1 5.50106e-05
13 *48:15 *251:A2 0.000140467
14 *48:15 *50:12 1.03955e-05
15 *48:15 *52:14 6.2188e-05
16 *48:23 *52:14 1.58805e-05
17 *35:75 *48:23 6.43149e-05
18 *36:58 *48:23 0.000211736
19 *36:71 *48:23 1.19692e-05
*RES
1 *245:Y *48:8 25.9 
2 *48:8 *248:A1 23 
3 *48:8 *48:15 3.00357 
4 *48:15 *48:23 34.8886 
5 *48:23 *246:A 23 
6 *48:15 *249:A1 23 
*END

*D_NET *49 0.000680696
*CONN
*I *252:A3 I *D sky130_fd_sc_hd__o31ai_2
*I *246:Y O *D sky130_fd_sc_hd__inv_2
*CAP
1 *252:A3 0
2 *246:Y 0.000290285
3 *49:10 0.000290285
4 *49:10 *94:56 0
5 *49:10 *94:66 0
6 *43:8 *49:10 1.8501e-05
7 *44:29 *49:10 8.16253e-05
*RES
1 *246:Y *49:10 42.3086 
2 *49:10 *252:A3 38 
*END

*D_NET *50 0.00172599
*CONN
*I *249:A2 I *D sky130_fd_sc_hd__a21oi_1
*I *248:A2 I *D sky130_fd_sc_hd__o21ai_1
*I *247:Y O *D sky130_fd_sc_hd__o21ai_1
*CAP
1 *249:A2 0.00021867
2 *248:A2 0
3 *247:Y 0.0001262
4 *50:12 0.000263702
5 *50:8 0.000171232
6 *249:A2 *251:A2 5.53595e-05
7 *249:A2 *52:14 0.00020324
8 *249:A2 *87:55 0.000265472
9 *50:8 *282:RESET_B 0.000148391
10 *50:8 *94:16 0.000150878
11 *48:8 *249:A2 1.14154e-05
12 *48:8 *50:12 1.24376e-05
13 *48:15 *249:A2 8.85951e-05
14 *48:15 *50:12 1.03955e-05
*RES
1 *247:Y *50:8 42.0186 
2 *50:8 *50:12 15.6214 
3 *50:12 *248:A2 23 
4 *50:12 *249:A2 29.4007 
*END

*D_NET *51 0.000139982
*CONN
*I *249:B1 I *D sky130_fd_sc_hd__a21oi_1
*I *248:Y O *D sky130_fd_sc_hd__o21ai_1
*CAP
1 *249:B1 1.49804e-05
2 *248:Y 1.49804e-05
3 *249:B1 *251:A2 5.50106e-05
4 *48:15 *249:B1 5.50106e-05
*RES
1 *248:Y *249:B1 46.6214 
*END

*D_NET *52 0.00235988
*CONN
*I *250:C1 I *D sky130_fd_sc_hd__a221o_1
*I *249:Y O *D sky130_fd_sc_hd__a21oi_1
*CAP
1 *250:C1 0.000386035
2 *249:Y 0.000508355
3 *52:14 0.00089439
4 *52:14 *251:A2 1.56762e-05
5 *52:14 *80:24 0
6 *249:A2 *52:14 0.00020324
7 *27:8 *250:C1 0.000162019
8 *35:61 *250:C1 1.37232e-05
9 *35:75 *52:14 9.83743e-05
10 *36:58 *52:14 0
11 *36:71 *52:14 0