*SPEF "ieee 1481-1999"
*DESIGN "counter"
*DATE "03:18:30 Friday December 20, 2024"
*VENDOR "The OpenROAD Project"
*PROGRAM "OpenROAD"
*VERSION "b16bda7e82721d10566ff7e2b68f1ff0be9f9e38"
*DESIGN_FLOW "NAME_SCOPE LOCAL" "PIN_CAP NONE"
*DIVIDER /
*DELIMITER :
*BUS_DELIMITER []
*T_UNIT 1 NS
*C_UNIT 1 PF
*R_UNIT 1 OHM
*L_UNIT 1 HENRY

*NAME_MAP
*3 clk
*4 count[0]
*5 count[1]
*6 count[2]
*7 count[3]
*8 count[4]
*9 count[5]
*10 count[6]
*11 count[7]
*12 data[0]
*13 data[1]
*14 data[2]
*15 data[3]
*16 data[4]
*17 data[5]
*18 data[6]
*19 data[7]
*20 enable
*21 preload
*22 resetn
*23 up_down
*24 _000_
*25 _001_
*26 _002_
*27 _003_
*28 _004_
*29 _005_
*30 _006_
*31 _007_
*32 _008_
*33 _009_
*34 _010_
*35 _011_
*36 _012_
*37 _013_
*38 _014_
*39 _015_
*40 _016_
*41 _017_
*42 _018_
*43 _019_
*44 _020_
*45 _021_
*46 _022_
*47 _023_
*48 _024_
*49 _025_
*50 _026_
*51 _027_
*52 _028_
*53 _029_
*54 _030_
*55 _031_
*56 _032_
*57 _033_
*58 _034_
*59 _035_
*60 _036_
*61 _037_
*62 _038_
*63 _039_
*64 _040_
*65 _041_
*66 _042_
*67 _043_
*68 _044_
*69 _045_
*70 _046_
*71 _047_
*72 _048_
*73 _049_
*74 _050_
*75 _051_
*76 _052_
*77 _053_
*78 clknet_0_clk
*79 clknet_1_0__leaf_clk
*80 clknet_1_1__leaf_clk
*81 net1
*82 net10
*83 net11
*84 net12
*85 net13
*86 net14
*87 net15
*88 net16
*89 net17
*90 net18
*91 net19
*92 net2
*93 net20
*94 net3
*95 net4
*96 net5
*97 net6
*98 net7
*99 net8
*100 net9
*101 FILLER_0_0_15
*102 FILLER_0_0_23
*103 FILLER_0_0_27
*104 FILLER_0_0_29
*105 FILLER_0_0_3
*106 FILLER_0_0_37
*107 FILLER_0_0_41
*108 FILLER_0_0_51
*109 FILLER_0_0_55
*110 FILLER_0_0_70
*111 FILLER_0_10_14
*112 FILLER_0_10_21
*113 FILLER_0_10_27
*114 FILLER_0_10_29
*115 FILLER_0_10_49
*116 FILLER_0_10_6
*117 FILLER_0_10_62
*118 FILLER_0_10_74
*119 FILLER_0_11_15
*120 FILLER_0_11_24
*121 FILLER_0_11_51
*122 FILLER_0_11_55
*123 FILLER_0_11_57
*124 FILLER_0_11_6
*125 FILLER_0_11_69
*126 FILLER_0_11_77
*127 FILLER_0_12_15
*128 FILLER_0_12_27
*129 FILLER_0_12_29
*130 FILLER_0_12_3
*131 FILLER_0_12_37
*132 FILLER_0_12_41
*133 FILLER_0_12_48
*134 FILLER_0_12_57
*135 FILLER_0_12_69
*136 FILLER_0_12_77
*137 FILLER_0_1_54
*138 FILLER_0_1_57
*139 FILLER_0_2_14
*140 FILLER_0_2_24
*141 FILLER_0_2_29
*142 FILLER_0_2_44
*143 FILLER_0_2_6
*144 FILLER_0_2_70
*145 FILLER_0_3_13
*146 FILLER_0_3_21
*147 FILLER_0_3_30
*148 FILLER_0_3_34
*149 FILLER_0_3_53
*150 FILLER_0_3_61
*151 FILLER_0_3_73
*152 FILLER_0_3_77
*153 FILLER_0_4_15
*154 FILLER_0_4_27
*155 FILLER_0_4_3
*156 FILLER_0_4_39
*157 FILLER_0_4_43
*158 FILLER_0_5_18
*159 FILLER_0_5_35
*160 FILLER_0_5_7
*161 FILLER_0_5_71
*162 FILLER_0_6_18
*163 FILLER_0_6_26
*164 FILLER_0_6_29
*165 FILLER_0_6_57
*166 FILLER_0_6_73
*167 FILLER_0_7_35
*168 FILLER_0_7_57
*169 FILLER_0_7_67
*170 FILLER_0_7_9
*171 FILLER_0_8_17
*172 FILLER_0_8_25
*173 FILLER_0_8_49
*174 FILLER_0_8_9
*175 FILLER_0_9_23
*176 FILLER_0_9_29
*177 FILLER_0_9_50
*178 FILLER_0_9_57
*179 FILLER_0_9_63
*180 FILLER_0_9_71
*181 PHY_EDGE_ROW_0_Left_13
*182 PHY_EDGE_ROW_0_Right_0
*183 PHY_EDGE_ROW_10_Left_23
*184 PHY_EDGE_ROW_10_Right_10
*185 PHY_EDGE_ROW_11_Left_24
*186 PHY_EDGE_ROW_11_Right_11
*187 PHY_EDGE_ROW_12_Left_25
*188 PHY_EDGE_ROW_12_Right_12
*189 PHY_EDGE_ROW_1_Left_14
*190 PHY_EDGE_ROW_1_Right_1
*191 PHY_EDGE_ROW_2_Left_15
*192 PHY_EDGE_ROW_2_Right_2
*193 PHY_EDGE_ROW_3_Left_16
*194 PHY_EDGE_ROW_3_Right_3
*195 PHY_EDGE_ROW_4_Left_17
*196 PHY_EDGE_ROW_4_Right_4
*197 PHY_EDGE_ROW_5_Left_18
*198 PHY_EDGE_ROW_5_Right_5
*199 PHY_EDGE_ROW_6_Left_19
*200 PHY_EDGE_ROW_6_Right_6
*201 PHY_EDGE_ROW_7_Left_20
*202 PHY_EDGE_ROW_7_Right_7
*203 PHY_EDGE_ROW_8_Left_21
*204 PHY_EDGE_ROW_8_Right_8
*205 PHY_EDGE_ROW_9_Left_22
*206 PHY_EDGE_ROW_9_Right_9
*207 TAP_TAPCELL_ROW_0_26
*208 TAP_TAPCELL_ROW_0_27
*209 TAP_TAPCELL_ROW_10_37
*210 TAP_TAPCELL_ROW_11_38
*211 TAP_TAPCELL_ROW_12_39
*212 TAP_TAPCELL_ROW_12_40
*213 TAP_TAPCELL_ROW_1_28
*214 TAP_TAPCELL_ROW_2_29
*215 TAP_TAPCELL_ROW_3_30
*216 TAP_TAPCELL_ROW_4_31
*217 TAP_TAPCELL_ROW_5_32
*218 TAP_TAPCELL_ROW_6_33
*219 TAP_TAPCELL_ROW_7_34
*220 TAP_TAPCELL_ROW_8_35
*221 TAP_TAPCELL_ROW_9_36
*222 _054_
*223 _055_
*224 _056_
*225 _057_
*226 _058_
*227 _059_
*228 _060_
*229 _061_
*230 _062_
*231 _063_
*232 _064_
*233 _065_
*234 _066_
*235 _067_
*236 _068_
*237 _069_
*238 _070_
*239 _071_
*240 _072_
*241 _073_
*242 _074_
*243 _075_
*244 _076_
*245 _077_
*246 _078_
*247 _079_
*248 _080_
*249 _081_
*250 _082_
*251 _083_
*252 _084_
*253 _085_
*254 _086_
*255 _087_
*256 _088_
*257 _089_
*258 _090_
*259 _091_
*260 _092_
*261 _093_
*262 _094_
*263 _095_
*264 _096_
*265 _097_
*266 _098_
*267 _099_
*268 _100_
*269 _101_
*270 _102_
*271 _103_
*272 _104_
*273 _105_
*274 _106_
*275 _107_
*276 _108_
*277 _109_
*278 _110_
*279 _111_
*280 _112_
*281 _113_
*282 _114_
*283 _115_
*284 clkbuf_0_clk
*285 clkbuf_1_0__f_clk
*286 clkbuf_1_1__f_clk
*287 clkload0
*288 input1
*289 input10
*290 input11
*291 input12
*292 input2
*293 input3
*294 input4
*295 input5
*296 input6
*297 input7
*298 input8
*299 input9
*300 output13
*301 output14
*302 output15
*303 output16
*304 output17
*305 output18
*306 output19
*307 output20

*PORTS
clk I
count[0] O
count[1] O
count[2] O
count[3] O
count[4] O
count[5] O
count[6] O
count[7] O
data[0] I
data[1] I
data[2] I
data[3] I
data[4] I
data[5] I
data[6] I
data[7] I
enable I
preload I
resetn I
up_down I

*D_NET *3 0.00354013
*CONN
*P clk I
*I *284:A I *D sky130_fd_sc_hd__clkbuf_16
*CAP
1 clk 0.00163672
2 *284:A 0.00163672
3 *284:A count[2] 3.14094e-05
4 *284:A count[3] 0
5 *284:A *247:A2 0
6 *284:A *248:A1 4.04613e-05
7 *284:A *248:A2 0
8 *284:A *266:A2 0
9 *284:A *289:A 2.24901e-05
10 *284:A *35:39 4.77719e-05
11 *284:A *35:69 0
12 *284:A *54:16 3.98127e-05
13 *284:A *54:36 8.47372e-05
14 *284:A *84:46 0
*RES
1 clk *284:A 12.6911 
*END

*D_NET *4 0.000667565
*CONN
*P count[0] O
*I *300:X O *D sky130_fd_sc_hd__buf_1
*CAP
1 count[0] 0.000300422
2 *300:X 0.000300422
3 count[0] *223:A 0
4 count[0] *290:A 6.67215e-05
*RES
1 *300:X count[0] 5.53157 
*END

*D_NET *5 0.000764047
*CONN
*P count[1] O
*I *301:X O *D sky130_fd_sc_hd__buf_1
*CAP
1 count[1] 0.000379342
2 *301:X 0.000379342
3 count[1] *292:A 0
4 count[1] *82:52 5.36384e-06
*RES
1 *301:X count[1] 9.84 
*END

*D_NET *6 0.000541298
*CONN
*P count[2] O
*I *302:X O *D sky130_fd_sc_hd__buf_1
*CAP
1 count[2] 0.000254945
2 *302:X 0.000254945
3 *284:A count[2] 3.14094e-05
*RES
1 *302:X count[2] 6.8343 
*END

*D_NET *7 0.00094003
*CONN
*P count[3] O
*I *303:X O *D sky130_fd_sc_hd__buf_1
*CAP
1 count[3] 0.000343299
2 *303:X 0.000343299
3 count[3] *289:A 2.85068e-05
4 count[3] *291:A 0
5 count[3] *294:A 3.14094e-05
6 count[3] *84:8 0.000130714
7 count[3] *84:10 6.28008e-05
8 *284:A count[3] 0
*RES
1 *303:X count[3] 7.06157 
*END

*D_NET *8 0.000384461
*CONN
*P count[4] O
*I *304:X O *D sky130_fd_sc_hd__buf_1
*CAP
1 count[4] 0.000115767
2 *304:X 0.000115767
3 count[4] *296:A 7.32103e-05
4 count[4] *299:A 6.74652e-05
5 count[4] *304:A 1.22505e-05
*RES
1 *304:X count[4] 4.7885 
*END

*D_NET *9 0.000437659
*CONN
*P count[5] O
*I *305:X O *D sky130_fd_sc_hd__buf_1
*CAP
1 count[5] 0.000182224
2 *305:X 0.000182224
3 count[5] *296:A 7.32103e-05
*RES
1 *305:X count[5] 5.2985 
*END

*D_NET *10 0.000875623
*CONN
*P count[6] O
*I *306:X O *D sky130_fd_sc_hd__buf_1
*CAP
1 count[6] 0.000437811
2 *306:X 0.000437811
3 count[6] *297:A 0
*RES
1 *306:X count[6] 11.475 
*END

*D_NET *11 0.000482126
*CONN
*P count[7] O
*I *307:X O *D sky130_fd_sc_hd__buf_1
*CAP
1 count[7] 0.000215643
2 *307:X 0.000215643
3 count[7] *291:A 0
4 count[7] *298:A 2.85068e-05
5 count[7] *93:23 2.23342e-05
*RES
1 *307:X count[7] 5.10177 
*END

*D_NET *12 0.00139896
*CONN
*P data[0] I
*I *288:A I *D sky130_fd_sc_hd__clkbuf_1
*CAP
1 data[0] 0.000563764
2 *288:A 0.000563764
3 *288:A *227:A2 1.12578e-05
4 *288:A *227:B1 0.0001249
5 *288:A *300:A 3.70488e-05
6 *288:A *32:6 4.60584e-05
7 *288:A *32:12 4.12959e-05
8 *288:A *83:10 1.08758e-05
*RES
1 data[0] *288:A 13.425 
*END

*D_NET *13 0.00110139
*CONN
*P data[1] I
*I *292:A I *D sky130_fd_sc_hd__clkbuf_1
*CAP
1 data[1] 0.000413454
2 *292:A 0.000413454
3 *292:A *234:A1 8.65961e-05
4 *292:A *234:B1 9.67472e-05
5 *292:A *239:B1 5.94134e-05
6 *292:A *35:71 3.17241e-05
7 count[1] *292:A 0
*RES
1 data[1] *292:A 11.7 
*END

*D_NET *14 0.0010314
*CONN
*P data[2] I
*I *293:A I *D sky130_fd_sc_hd__clkbuf_1
*CAP
1 data[2] 0.000467194
2 *293:A 0.000467194
3 *293:A *239:A1 1.08758e-05
4 *293:A *239:A2 1.83847e-05
5 *293:A *239:B1 0
6 *293:A *82:52 6.77501e-05
*RES
1 data[2] *293:A 11.655 
*END

*D_NET *15 0.000638117
*CONN
*P data[3] I
*I *294:A I *D sky130_fd_sc_hd__clkbuf_1
*CAP
1 data[3] 0.000292595
2 *294:A 0.000292595
3 *294:A *291:A 2.15176e-05
4 *294:A *84:8 0
5 count[3] *294:A 3.14094e-05
*RES
1 data[3] *294:A 7.5993 
*END

*D_NET *16 0.000552474
*CONN
*P data[4] I
*I *295:A I *D sky130_fd_sc_hd__clkbuf_1
*CAP
1 data[4] 0.000202842
2 *295:A 0.000202842
3 *295:A *290:A 0
4 *295:A *299:A 7.32103e-05
5 *295:A *89:10 7.3579e-05
*RES
1 data[4] *295:A 6.0635 
*END

*D_NET *17 0.000617135
*CONN
*P data[5] I
*I *296:A I *D sky130_fd_sc_hd__clkbuf_1
*CAP
1 data[5] 0.000235357
2 *296:A 0.000235357
3 *296:A *35:23 0
4 count[4] *296:A 7.32103e-05
5 count[5] *296:A 7.32103e-05
*RES
1 data[5] *296:A 6.5735 
*END

*D_NET *18 0.00108272
*CONN
*P data[6] I
*I *297:A I *D sky130_fd_sc_hd__clkbuf_1
*CAP
1 data[6] 0.000541359
2 *297:A 0.000541359
3 count[6] *297:A 0
*RES
1 data[6] *297:A 12.825 
*END

*D_NET *19 0.0005941
*CONN
*P data[7] I
*I *298:A I *D sky130_fd_sc_hd__clkbuf_1
*CAP
1 data[7] 0.000271552
2 *298:A 0.000271552
3 *298:A *291:A 2.24901e-05
4 *298:A *93:23 0
5 count[7] *298:A 2.85068e-05
*RES
1 data[7] *298:A 7.3443 
*END

*D_NET *20 0.000449941
*CONN
*P enable I
*I *299:A I *D sky130_fd_sc_hd__buf_1
*CAP
1 enable 0.000136278
2 *299:A 0.000136278
3 *299:A *89:10 3.67085e-05
4 count[4] *299:A 6.74652e-05
5 *295:A *299:A 7.32103e-05
*RES
1 enable *299:A 5.2985 
*END

*D_NET *21 0.000622192
*CONN
*P preload I
*I *289:A I *D sky130_fd_sc_hd__buf_2
*CAP
1 preload 0.000285597
2 *289:A 0.000285597
3 *289:A *84:10 0
4 count[3] *289:A 2.85068e-05
5 *284:A *289:A 2.24901e-05
*RES
1 preload *289:A 7.5993 
*END

*D_NET *22 0.000916103
*CONN
*P resetn I
*I *290:A I *D sky130_fd_sc_hd__buf_2
*CAP
1 resetn 0.000371201
2 *290:A 0.000371201
3 *290:A *223:A 0
4 *290:A *227:A2 0
5 *290:A *83:10 0
6 *290:A *85:14 0.00010698
7 count[0] *290:A 6.67215e-05
8 *295:A *290:A 0
*RES
1 resetn *290:A 8.6135 
*END

*D_NET *23 0.000524902
*CONN
*P up_down I
*I *291:A I *D sky130_fd_sc_hd__clkbuf_4
*CAP
1 up_down 0.000240447
2 *291:A 0.000240447
3 *291:A *274:B2 0
4 count[3] *291:A 0
5 count[7] *291:A 0
6 *294:A *291:A 2.15176e-05
7 *298:A *291:A 2.24901e-05
*RES
1 up_down *291:A 6.98543 
*END

*D_NET *24 0.0010482
*CONN
*I *276:D I *D sky130_fd_sc_hd__dfrtp_1
*I *228:Y O *D sky130_fd_sc_hd__a21oi_1
*CAP
1 *276:D 0.000239228
2 *228:Y 0.000239228
3 *276:D *228:B1 0.000315146
4 *276:D *32:12 1.43521e-05
5 *276:D *32:25 0.000118661
6 *276:D *36:24 5.81434e-06
7 *276:D *79:12 6.90876e-05
8 *276:D *79:14 4.66826e-05
*RES
1 *228:Y *276:D 13.155 
*END

*D_NET *25 0.000369848
*CONN
*I *277:D I *D sky130_fd_sc_hd__dfrtp_1
*I *234:X O *D sky130_fd_sc_hd__a21o_1
*CAP
1 *277:D 0.000141186
2 *234:X 0.000141186
3 *277:D *301:A 5.06989e-05
4 *277:D *82:52 3.67779e-05
*RES
1 *234:X *277:D 9.375 
*END

*D_NET *26 0.00044675
*CONN
*I *278:D I *D sky130_fd_sc_hd__dfrtp_2
*I *240:X O *D sky130_fd_sc_hd__a31o_1
*CAP
1 *278:D 0.000134883
2 *240:X 0.000134883
3 *278:D *240:B1 5.2089e-05
4 *278:D *278:RESET_B 0.000124895
*RES
1 *240:X *278:D 9.465 
*END

*D_NET *27 0.000288812
*CONN
*I *279:D I *D sky130_fd_sc_hd__dfrtp_1
*I *246:X O *D sky130_fd_sc_hd__a221o_1
*CAP
1 *279:D 9.56829e-05
2 *246:X 9.56829e-05
3 *279:D *36:60 6.74079e-05
4 *279:D *88:25 3.00381e-05
*RES
1 *246:X *279:D 9.03 
*END

*D_NET *28 0.000621678
*CONN
*I *280:D I *D sky130_fd_sc_hd__dfrtp_1
*I *255:X O *D sky130_fd_sc_hd__a31o_1
*CAP
1 *280:D 0.000150935
2 *255:X 0.000150935
3 *280:D *255:A2 0.000124895
4 *280:D *36:8 1.08758e-05
5 *280:D *36:16 0.000118513
6 *280:D *82:100 6.5525e-05
*RES
1 *255:X *280:D 10.065 
*END

*D_NET *29 0.000381736
*CONN
*I *281:D I *D sky130_fd_sc_hd__dfrtp_1
*I *261:X O *D sky130_fd_sc_hd__a31o_1
*CAP
1 *281:D 0.000130544
2 *261:X 0.000130544
3 *281:D *261:A2 4.99619e-05
4 *281:D *261:A3 7.06865e-05
5 *281:D *261:B1 0
6 *281:D *266:A3 0
*RES
1 *261:X *281:D 9.285 
*END

*D_NET *30 0.000775038
*CONN
*I *282:D I *D sky130_fd_sc_hd__dfrtp_1
*I *270:X O *D sky130_fd_sc_hd__a31o_1
*CAP
1 *282:D 0.000301855
2 *270:X 0.000301855
3 *282:D *269:A1 0
4 *282:D *270:A1 8.60799e-05
5 *282:D *282:CLK 4.65868e-05
6 *282:D *283:RESET_B 0
7 *282:D *80:12 3.86607e-05
*RES
1 *270:X *282:D 11.6287 
*END

*D_NET *31 0.000572074
*CONN
*I *283:D I *D sky130_fd_sc_hd__dfrtp_1
*I *275:X O *D sky130_fd_sc_hd__a21o_1
*CAP
1 *283:D 0.000175016
2 *275:X 0.000175016
3 *283:D *275:B1 9.14049e-05
4 *283:D *283:RESET_B 4.82919e-05
5 *283:D *36:60 8.23457e-05
*RES
1 *275:X *283:D 9.915 
*END

*D_NET *32 0.0026829
*CONN
*I *227:B2 I *D sky130_fd_sc_hd__a22o_1
*I *232:A1 I *D sky130_fd_sc_hd__o21a_1
*I *235:A1 I *D sky130_fd_sc_hd__o21a_1
*I *231:A I *D sky130_fd_sc_hd__nand2_1
*I *222:Y O *D sky130_fd_sc_hd__inv_2
*CAP
1 *227:B2 1.49415e-05
2 *232:A1 0
3 *235:A1 8.30169e-06
4 *231:A 0
5 *222:Y 1.14162e-05
6 *32:25 0.000337676
7 *32:12 0.000492834
8 *32:6 0.000189818
9 *227:B2 *300:A 1.37328e-05
10 *235:A1 *235:A2 2.86975e-05
11 *235:A1 *36:32 4.89295e-05
12 *32:6 *227:A2 8.8266e-05
13 *32:12 *227:A1 0
14 *32:12 *227:A2 0.000160635
15 *32:12 *227:B1 0.000191243
16 *32:12 *228:B1 0
17 *32:12 *231:B 2.97004e-06
18 *32:12 *233:A2 0
19 *32:12 *234:A1 0.000117832
20 *32:12 *82:75 0.000216183
21 *32:25 *228:B1 0
22 *32:25 *231:B 5.34443e-05
23 *32:25 *234:A2 2.49909e-05
24 *32:25 *235:A2 2.01504e-05
25 *32:25 *285:A 0.000103974
26 *32:25 *287:A 4.82863e-05
27 *32:25 *36:24 0.000164258
28 *32:25 *36:32 0.000123955
29 *276:D *32:12 1.43521e-05
30 *276:D *32:25 0.000118661
31 *288:A *32:6 4.60584e-05
32 *288:A *32:12 4.12959e-05
*RES
1 *222:Y *32:6 2.395 
2 *32:6 *32:12 7.7 
3 *32:12 *231:A 3.6 
4 *32:12 *32:25 10.175 
5 *32:25 *235:A1 2.05 
6 *32:25 *232:A1 1.6 
7 *32:6 *227:B2 1.96 
*END

*D_NET *33 0.00150251
*CONN
*I *227:A2 I *D sky130_fd_sc_hd__a22o_1
*I *223:Y O *D sky130_fd_sc_hd__inv_2
*CAP
1 *227:A2 0.000260631
2 *223:Y 0.000260631
3 *227:A2 *223:A 0.000253949
4 *227:A2 *227:A1 5.16348e-05
5 *227:A2 *234:A1 0
6 *227:A2 *300:A 8.40269e-05
7 *227:A2 *82:75 4.66108e-05
8 *227:A2 *83:10 0.000187766
9 *227:A2 *83:21 9.71067e-05
10 *288:A *227:A2 1.12578e-05
11 *290:A *227:A2 0
12 *32:6 *227:A2 8.8266e-05
13 *32:12 *227:A2 0.000160635
*RES
1 *223:Y *227:A2 18.19 
*END

*D_NET *34 0.000280664
*CONN
*I *243:A2 I *D sky130_fd_sc_hd__o21ai_1
*I *224:Y O *D sky130_fd_sc_hd__inv_2
*CAP
1 *243:A2 0.000125313
2 *224:Y 0.000125313
3 *243:A2 *236:A 0
4 *243:A2 *247:A1 3.00381e-05
5 *243:A2 *36:45 0
*RES
1 *224:Y *243:A2 9.03 
*END

*D_NET *35 0.014364
*CONN
*I *260:B1 I *D sky130_fd_sc_hd__a22o_1
*I *269:B1 I *D sky130_fd_sc_hd__a22o_1
*I *233:B1 I *D sky130_fd_sc_hd__a22o_1
*I *227:B1 I *D sky130_fd_sc_hd__a22o_1
*I *239:B1 I *D sky130_fd_sc_hd__a22o_1
*I *246:B1 I *D sky130_fd_sc_hd__a221o_1
*I *274:B1 I *D sky130_fd_sc_hd__a22o_1
*I *254:B1 I *D sky130_fd_sc_hd__a22o_1
*I *225:Y O *D sky130_fd_sc_hd__nor2_2
*CAP
1 *260:B1 4.15903e-05
2 *269:B1 0.000199475
3 *233:B1 0
4 *227:B1 0.00030191
5 *239:B1 0.00102416
6 *246:B1 2.08101e-05
7 *274:B1 0.0002437
8 *254:B1 0.000175139
9 *225:Y 4.23827e-05
10 *35:71 0.00142431
11 *35:69 0.000644799
12 *35:39 0.00112042
13 *35:37 0.00178051
14 *35:29 0.00104085
15 *35:23 0.000737933
16 *35:8 0.000450522
17 *227:B1 *234:A1 0.000133408
18 *227:B1 *234:B1 2.75229e-05
19 *227:B1 *82:75 3.94429e-05
20 *254:B1 *225:A 9.35556e-05
21 *254:B1 *226:B 3.05373e-05
22 *254:B1 *254:A1 2.30292e-05
23 *254:B1 *83:62 9.54469e-05
24 *254:B1 *89:10 0
25 *254:B1 *89:14 1.19928e-05
26 *260:B1 *260:A2 4.82863e-05
27 *260:B1 *260:B2 4.82863e-05
28 *260:B1 *269:A1 5.53249e-06
29 *260:B1 *82:128 2.34423e-05
30 *269:B1 *269:A2 3.50152e-06
31 *269:B1 *270:A2 4.85763e-05
32 *269:B1 *70:12 0.00019683
33 *269:B1 *91:16 3.07201e-05
34 *269:B1 *91:29 2.86975e-05
35 *274:B1 *246:B2 5.83121e-06
36 *274:B1 *246:C1 3.24046e-05
37 *274:B1 *274:A1 0.000182978
38 *274:B1 *303:A 0
39 *274:B1 *36:60 0
40 *274:B1 *82:16 1.71013e-05
41 *274:B1 *84:8 0
42 *274:B1 *88:25 1.47347e-05
43 *35:8 *89:14 8.65961e-05
44 *35:23 *304:A 0
45 *35:23 *82:128 0.000110315
46 *35:23 *83:62 0.000265852
47 *35:29 *260:B2 0.000263002
48 *35:29 *261:B1 4.82863e-05
49 *35:29 *269:A1 6.35514e-05
50 *35:29 *286:A 4.80285e-05
51 *35:29 *90:16 0.000350486
52 *35:37 *266:A2 0.000213873
53 *35:37 *70:12 0.000259655
54 *35:39 *82:31 0.000350486
55 *35:39 *88:25 0.000107643
56 *35:69 *234:A2 0.000291372
57 *35:69 *235:B1 0
58 *35:69 *250:A_N 5.13155e-05
59 *35:69 *265:B1_N 5.9704e-05
60 *35:69 *266:A1 7.06865e-05
61 *35:69 *266:A2 3.30795e-05
62 *35:69 *280:CLK 3.05894e-05
63 *35:69 *285:A 0
64 *35:69 *54:16 0
65 *35:69 *57:18 0.000196705
66 *35:69 *79:38 2.66939e-05
67 *35:69 *84:85 5.4256e-05
68 *35:69 *86:32 0.00014483
69 *35:71 *234:A2 0.000206123
70 *35:71 *301:A 0.000177151
71 *35:71 *86:32 8.30853e-06
72 *284:A *35:39 4.77719e-05
73 *284:A *35:69 0
74 *288:A *227:B1 0.0001249
75 *292:A *239:B1 5.94134e-05
76 *292:A *35:71 3.17241e-05
77 *293:A *239:B1 0
78 *296:A *35:23 0
79 *32:12 *227:B1 0.000191243
*RES
1 *225:Y *35:8 4.395 
2 *35:8 *254:B1 6.57 
3 *35:8 *35:23 5.46 
4 *35:23 *35:29 12.385 
5 *35:29 *35:37 9.38 
6 *35:37 *35:39 10.455 
7 *35:39 *274:B1 10.49 
8 *35:39 *246:B1 1.96 
9 *35:37 *35:69 13.58 
10 *35:69 *35:71 3.0375 
11 *35:71 *239:B1 19.2325 
12 *35:71 *227:B1 9.4725 
13 *35:69 *233:B1 3.6 
14 *35:29 *269:B1 7.26 
15 *35:23 *260:B1 4.665 
*END

*D_NET *36 0.00934312
*CONN
*I *255:A1 I *D sky130_fd_sc_hd__a31o_1
*I *261:A1 I *D sky130_fd_sc_hd__a31o_1
*I *228:A2 I *D sky130_fd_sc_hd__a21oi_1
*I *232:B1 I *D sky130_fd_sc_hd__o21a_1
*I *270:A1 I *D sky130_fd_sc_hd__a31o_1
*I *275:A1 I *D sky130_fd_sc_hd__a21o_1
*I *244:B1 I *D sky130_fd_sc_hd__o21ai_1
*I *240:A1 I *D sky130_fd_sc_hd__a31o_1
*I *226:X O *D sky130_fd_sc_hd__and2b_2
*CAP
1 *255:A1 0
2 *261:A1 0.00027968
3 *228:A2 2.29048e-05
4 *232:B1 0
5 *270:A1 0.00039958
6 *275:A1 0
7 *244:B1 1.65033e-05
8 *240:A1 0.00015792
9 *226:X 0.000112121
10 *36:60 0.000842826
11 *36:45 0.000644024
12 *36:32 0.000909268
13 *36:24 0.000904182
14 *36:16 0.000566821
15 *36:10 0.000486488
16 *36:8 0.000112121
17 *228:A2 *228:A1 9.53428e-06
18 *240:A1 *240:A2 4.99619e-05
19 *240:A1 *240:A3 5.72004e-05
20 *240:A1 *278:RESET_B 0.000203178
21 *240:A1 *82:31 0
22 *240:A1 *87:34 0
23 *244:B1 *244:A1 4.66108e-05
24 *244:B1 *84:42 2.49909e-05
25 *261:A1 *254:A2 2.60986e-05
26 *261:A1 *255:B1 0.000118513
27 *261:A1 *261:A2 5.05521e-05
28 *261:A1 *265:A1 0
29 *261:A1 *82:100 1.34361e-05
30 *261:A1 *82:128 0
31 *261:A1 *89:20 0
32 *270:A1 *270:A2 9.96508e-05
33 *270:A1 *270:A3 2.20544e-05
34 *270:A1 *275:A2 4.99619e-05
35 *36:8 *255:A2 3.08078e-05
36 *36:8 *82:100 5.05521e-05
37 *36:16 *250:A_N 0
38 *36:16 *255:A3 0
39 *36:16 *82:100 6.53475e-05
40 *36:24 *228:A1 2.11084e-05
41 *36:24 *250:A_N 0.000274659
42 *36:24 *287:A 4.82863e-05
43 *36:32 *235:A2 2.25859e-05
44 *36:32 *235:B1 5.86796e-05
45 *36:32 *248:A2 4.21973e-05
46 *36:32 *43:8 6.12706e-05
47 *36:32 *44:6 0.000387902
48 *36:32 *44:17 0.000114912
49 *36:45 *236:A 0
50 *36:45 *240:A3 1.38025e-05
51 *36:45 *247:A1 0.000330312
52 *36:45 *50:10 3.09364e-05
53 *36:45 *82:16 1.52184e-05
54 *36:45 *84:12 0
55 *36:45 *87:34 0
56 *36:60 *246:A2 0.000160658
57 *36:60 *247:A1 4.43871e-06
58 *36:60 *274:A1 9.95428e-05
59 *36:60 *274:A2 0.000181145
60 *36:60 *275:A2 4.99619e-05
61 *36:60 *275:B1 0.000268973
62 *36:60 *279:CLK 0
63 *36:60 *279:RESET_B 0
64 *36:60 *82:16 7.5458e-05
65 *36:60 *84:8 0
66 *36:60 *84:131 0
67 *235:A1 *36:32 4.89295e-05
68 *243:A2 *36:45 0
69 *274:B1 *36:60 0
70 *276:D *36:24 5.81434e-06
71 *279:D *36:60 6.74079e-05
72 *280:D *36:8 1.08758e-05
73 *280:D *36:16 0.000118513
74 *282:D *270:A1 8.60799e-05
75 *283:D *36:60 8.23457e-05
76 *32:25 *36:24 0.000164258
77 *32:25 *36:32 0.000123955
*RES
1 *226:X *36:8 3.445 
2 *36:8 *36:10 2 
3 *36:10 *36:16 5.87 
4 *36:16 *36:24 6.45 
5 *36:24 *36:32 12.485 
6 *36:32 *240:A1 7.32 
7 *36:32 *36:45 4.44 
8 *36:45 *244:B1 4.05 
9 *36:45 *36:60 13.19 
10 *36:60 *275:A1 1.6 
11 *36:60 *270:A1 12.185 
12 *36:24 *232:B1 1.6 
13 *36:16 *228:A2 2.215 
14 *36:10 *261:A1 8.925 
15 *36:8 *255:A1 1.6 
*END

*D_NET *37 0.000924767
*CONN
*I *228:B1 I *D sky130_fd_sc_hd__a21oi_1
*I *227:X O *D sky130_fd_sc_hd__a22o_1
*CAP
1 *228:B1 0.000294752
2 *227:X 0.000294752
3 *228:B1 *227:A1 4.18603e-06
4 *228:B1 *285:A 0
5 *228:B1 *79:12 0
6 *228:B1 *82:100 1.59309e-05
7 *276:D *228:B1 0.000315146
8 *32:12 *228:B1 0
9 *32:25 *228:B1 0
*RES
1 *227:X *228:B1 13.17 
*END

*D_NET *38 0.000530286
*CONN
*I *235:B1 I *D sky130_fd_sc_hd__o21a_1
*I *229:Y O *D sky130_fd_sc_hd__nand2b_1
*CAP
1 *235:B1 0.000192323
2 *229:Y 0.000192323
3 *235:B1 *230:B 8.696e-05
4 *235:B1 *39:12 0
5 *235:B1 *84:52 0
6 *35:69 *235:B1 0
7 *36:32 *235:B1 5.86796e-05
*RES
1 *229:Y *235:B1 10.44 
*END

*D_NET *39 0.00149745
*CONN
*I *231:B I *D sky130_fd_sc_hd__nand2_1
*I *232:A2 I *D sky130_fd_sc_hd__o21a_1
*I *235:A2 I *D sky130_fd_sc_hd__o21a_1
*I *230:X O *D sky130_fd_sc_hd__xor2_1
*CAP
1 *231:B 0.000222896
2 *232:A2 0
3 *235:A2 8.63769e-05
4 *230:X 0
5 *39:12 0.000200692
6 *39:4 0.000337212
7 *231:B *233:A2 5.53249e-06
8 *231:B *234:A2 5.11148e-06
9 *231:B *285:A 0.000149905
10 *231:B *79:14 4.82919e-05
11 *231:B *79:38 0.000158297
12 *231:B *83:27 3.24882e-05
13 *231:B *86:32 7.38676e-05
14 *39:12 *86:32 4.89295e-05
15 *235:A1 *235:A2 2.86975e-05
16 *235:B1 *39:12 0
17 *32:12 *231:B 2.97004e-06
18 *32:25 *231:B 5.34443e-05
19 *32:25 *235:A2 2.01504e-05
20 *36:32 *235:A2 2.25859e-05
*RES
1 *230:X *39:4 1.6 
2 *39:4 *39:12 5.83 
3 *39:12 *235:A2 2.74 
4 *39:12 *232:A2 1.6 
5 *39:4 *231:B 10.715 
*END

*D_NET *40 0.000903539
*CONN
*I *234:A1 I *D sky130_fd_sc_hd__a21o_1
*I *231:Y O *D sky130_fd_sc_hd__nand2_1
*CAP
1 *234:A1 0.000247841
2 *231:Y 0.000247841
3 *234:A1 *234:A2 0
4 *234:A1 *234:B1 7.00205e-05
5 *227:A2 *234:A1 0
6 *227:B1 *234:A1 0.000133408
7 *292:A *234:A1 8.65961e-05
8 *32:12 *234:A1 0.000117832
*RES
1 *231:Y *234:A1 11.52 
*END

*D_NET *41 0.0012967
*CONN
*I *234:A2 I *D sky130_fd_sc_hd__a21o_1
*I *232:X O *D sky130_fd_sc_hd__o21a_1
*CAP
1 *234:A2 0.000231114
2 *232:X 0.000231114
3 *234:A2 *233:A2 0.000140905
4 *234:A2 *234:B1 8.09021e-06
5 *234:A2 *79:38 0.000144444
6 *234:A2 *82:75 1.34361e-05
7 *231:B *234:A2 5.11148e-06
8 *234:A1 *234:A2 0
9 *32:25 *234:A2 2.49909e-05
10 *35:69 *234:A2 0.000291372
11 *35:71 *234:A2 0.000206123
*RES
1 *232:X *234:A2 13.365 
*END

*D_NET *42 0.000731959
*CONN
*I *234:B1 I *D sky130_fd_sc_hd__a21o_1
*I *233:X O *D sky130_fd_sc_hd__a22o_1
*CAP
1 *234:B1 0.000158964
2 *233:X 0.000158964
3 *234:B1 *233:A2 2.30292e-05
4 *234:B1 *301:A 4.89295e-05
5 *234:B1 *82:75 0.000139691
6 *227:B1 *234:B1 2.75229e-05
7 *234:A1 *234:B1 7.00205e-05
8 *234:A2 *234:B1 8.09021e-06
9 *292:A *234:B1 9.67472e-05
*RES
1 *233:X *234:B1 11.22 
*END

*D_NET *43 0.00111367
*CONN
*I *248:A1 I *D sky130_fd_sc_hd__o31ai_2
*I *237:A I *D sky130_fd_sc_hd__nand2_1
*I *238:A I *D sky130_fd_sc_hd__or2_1
*I *235:X O *D sky130_fd_sc_hd__o21a_1
*CAP
1 *248:A1 0.000110832
2 *237:A 1.8252e-05
3 *238:A 5.97679e-05
4 *235:X 0
5 *43:8 0.000259407
6 *43:4 0.000292219
7 *237:A *238:B 9.03508e-06
8 *237:A *44:17 4.87465e-06
9 *238:A *44:6 5.30673e-05
10 *238:A *44:17 3.00381e-05
11 *248:A1 *248:A2 0
12 *248:A1 *248:A3 3.60024e-06
13 *248:A1 *84:52 0
14 *248:A1 *84:72 4.77757e-05
15 *43:8 *248:A2 8.40213e-05
16 *43:8 *44:17 3.90495e-05
17 *284:A *248:A1 4.04613e-05
18 *36:32 *43:8 6.12706e-05
*RES
1 *235:X *43:4 1.6 
2 *43:4 *43:8 3.225 
3 *43:8 *238:A 2.74 
4 *43:8 *237:A 1.96 
5 *43:4 *248:A1 7.43 
*END

*D_NET *44 0.00226293
*CONN
*I *248:A2 I *D sky130_fd_sc_hd__o31ai_2
*I *237:B I *D sky130_fd_sc_hd__nand2_1
*I *238:B I *D sky130_fd_sc_hd__or2_1
*I *236:X O *D sky130_fd_sc_hd__xor2_1
*CAP
1 *248:A2 0.00018568
2 *237:B 0
3 *238:B 1.47259e-05
4 *236:X 0.00019471
5 *44:17 0.000215388
6 *44:6 0.000239144
7 *248:A2 *84:52 0.0001369
8 *248:A2 *84:72 7.08554e-05
9 *44:6 *240:A3 0.0001249
10 *44:6 *247:A1 0.000265565
11 *44:6 *87:43 4.99619e-05
12 *237:A *238:B 9.03508e-06
13 *237:A *44:17 4.87465e-06
14 *238:A *44:6 5.30673e-05
15 *238:A *44:17 3.00381e-05
16 *248:A1 *248:A2 0
17 *284:A *248:A2 0
18 *36:32 *248:A2 4.21973e-05
19 *36:32 *44:6 0.000387902
20 *36:32 *44:17 0.000114912
21 *43:8 *248:A2 8.40213e-05
22 *43:8 *44:17 3.90495e-05
*RES
1 *236:X *44:6 7.57 
2 *44:6 *238:B 1.96 
3 *44:6 *44:17 1.5 
4 *44:17 *237:B 1.6 
5 *44:17 *248:A2 9.53 
*END

*D_NET *45 0.000672506
*CONN
*I *240:A2 I *D sky130_fd_sc_hd__a31o_1
*I *237:Y O *D sky130_fd_sc_hd__nand2_1
*CAP
1 *240:A2 0.000201765
2 *237:Y 0.000201765
3 *240:A2 *278:RESET_B 0.000153474
4 *240:A2 *82:31 0
5 *240:A2 *84:52 6.55406e-05
6 *240:A1 *240:A2 4.99619e-05
*RES
1 *237:Y *240:A2 11.445 
*END

*D_NET *46 0.0013035
*CONN
*I *243:B1 I *D sky130_fd_sc_hd__o21ai_1
*I *240:A3 I *D sky130_fd_sc_hd__a31o_1
*I *238:X O *D sky130_fd_sc_hd__or2_1
*CAP
1 *243:B1 0.000297243
2 *240:A3 0.000163183
3 *238:X 0
4 *46:4 0.000460426
5 *240:A3 *247:A1 3.59531e-06
6 *240:A3 *82:31 0
7 *243:B1 *247:A1 0
8 *243:B1 *82:31 0.000183155
9 *240:A1 *240:A3 5.72004e-05
10 *36:45 *240:A3 1.38025e-05
11 *44:6 *240:A3 0.0001249
*RES
1 *238:X *46:4 1.6 
2 *46:4 *240:A3 8.885 
3 *46:4 *243:B1 10.61 
*END

*D_NET *47 0.000596005
*CONN
*I *240:B1 I *D sky130_fd_sc_hd__a31o_1
*I *239:X O *D sky130_fd_sc_hd__a22o_1
*CAP
1 *240:B1 0.000123081
2 *239:X 0.000123081
3 *240:B1 *278:RESET_B 0
4 *240:B1 *82:31 0.000297754
5 *278:D *240:B1 5.2089e-05
*RES
1 *239:X *240:B1 10.62 
*END

*D_NET *48 0.00227289
*CONN
*I *242:A I *D sky130_fd_sc_hd__inv_2
*I *244:A1 I *D sky130_fd_sc_hd__o21ai_1
*I *245:A1 I *D sky130_fd_sc_hd__a21oi_1
*I *241:Y O *D sky130_fd_sc_hd__xnor2_1
*CAP
1 *242:A 0.00029772
2 *244:A1 3.74974e-05
3 *245:A1 0
4 *241:Y 0.000111742
5 *48:21 0.000526124
6 *48:12 0.000302649
7 *242:A *247:A1 0.000240584
8 *242:A *247:A2 4.82863e-05
9 *242:A *247:B1_N 1.83847e-05
10 *242:A *248:A3 2.65814e-06
11 *242:A *84:42 3.8906e-05
12 *244:A1 *244:A2 4.82919e-05
13 *244:A1 *245:B1 0.000122337
14 *244:A1 *247:A1 1.08758e-05
15 *244:A1 *84:42 1.96098e-05
16 *48:12 *245:B1 8.65961e-05
17 *48:12 *246:C1 7.23602e-05
18 *48:12 *82:16 1.47256e-05
19 *48:12 *84:10 4.05358e-05
20 *48:21 *244:A2 0
21 *48:21 *245:B1 0.000186393
22 *244:B1 *244:A1 4.66108e-05
*RES
1 *241:Y *48:12 7.61 
2 *48:12 *245:A1 1.6 
3 *48:12 *48:21 2.79 
4 *48:21 *244:A1 3.085 
5 *48:21 *242:A 7.36 
*END

*D_NET *49 0.000336666
*CONN
*I *248:A3 I *D sky130_fd_sc_hd__o31ai_2
*I *242:Y O *D sky130_fd_sc_hd__inv_2
*CAP
1 *248:A3 0.000123887
2 *242:Y 0.000123887
3 *248:A3 *84:46 6.55406e-05
4 *248:A3 *84:52 1.70935e-05
5 *242:A *248:A3 2.65814e-06
6 *248:A1 *248:A3 3.60024e-06
*RES
1 *242:Y *248:A3 9.285 
*END

*D_NET *50 0.000528219
*CONN
*I *245:A2 I *D sky130_fd_sc_hd__a21oi_1
*I *244:A2 I *D sky130_fd_sc_hd__o21ai_1
*I *243:Y O *D sky130_fd_sc_hd__o21ai_1
*CAP
1 *245:A2 0
2 *244:A2 4.08161e-05
3 *243:Y 9.79045e-05
4 *50:10 0.000138721
5 *244:A2 *245:B1 1.91597e-05
6 *244:A2 *82:16 5.61451e-05
7 *244:A2 *84:42 2.30292e-05
8 *50:10 *246:C1 2.15738e-05
9 *50:10 *82:16 5.16418e-05
10 *50:10 *84:10 0
11 *50:10 *84:12 0
12 *244:A1 *244:A2 4.82919e-05
13 *36:45 *50:10 3.09364e-05
14 *48:21 *244:A2 0
*RES
1 *243:Y *50:10 7.235 
2 *50:10 *244:A2 2.755 
3 *50:10 *245:A2 1.6 
*END

*D_NET *51 0.000591563
*CONN
*I *245:B1 I *D sky130_fd_sc_hd__a21oi_1
*I *244:Y O *D sky130_fd_sc_hd__o21ai_1
*CAP
1 *245:B1 5.83626e-05
2 *244:Y 5.83626e-05
3 *245:B1 *82:16 6.03525e-05
4 *244:A1 *245:B1 0.000122337
5 *244:A2 *245:B1 1.91597e-05
6 *48:12 *245:B1 8.65961e-05
7 *48:21 *245:B1 0.000186393
*RES
1 *244:Y *245:B1 5.72 
*END

*D_NET *52 0.000371556
*CONN
*I *246:C1 I *D sky130_fd_sc_hd__a221o_1
*I *245:Y O *D sky130_fd_sc_hd__a21oi_1
*CAP
1 *246:C1 9.31398e-05
2 *245:Y 9.31398e-05
3 *246:C1 *82:16 0
4 *246:C1 *84:8 2.97004e-06
5 *246:C1 *84:10 5.59675e-05
6 *274:B1 *246:C1 3.24046e-05
7 *48:12 *246:C1 7.23602e-05
8 *50:10 *246:C1 2.15738e-05
*RES
1 *245:Y *246:C1 9.6 
*END

*D_NET *53 0.000399382
*CONN
*I *248:B1 I *D sky130_fd_sc_hd__o31ai_2
*I *247:Y O *D sky130_fd_sc_hd__o21bai_1
*CAP
1 *248:B1 0.000104752
2 *247:Y 0.000104752
3 *248:B1 *82:31 0
4 *248:B1 *84:42 4.82863e-05
5 *248:B1 *84:46 0.000109009
6 *248:B1 *84:52 3.25831e-05
*RES
1 *247:Y *248:B1 9.285 
*END

*D_NET *54 0.00351124
*CONN
*I *266:A1 I *D sky130_fd_sc_hd__a31o_1
*I *257:A1 I *D sky130_fd_sc_hd__a21o_1
*I *253:A I *D sky130_fd_sc_hd__nand2_1
*I *252:A I *D sky130_fd_sc_hd__or2_1
*I *248:Y O *D sky130_fd_sc_hd__o31ai_2
*CAP
1 *266:A1 0.000187233
2 *257:A1 0
3 *253:A 0.000110477
4 *252:A 0
5 *248:Y 0.000151754
6 *54:36 0.000403855
7 *54:16 0.000497176
8 *54:8 0.000755074
9 *253:A *253:B 0.000124895
10 *253:A *280:CLK 4.47209e-05
11 *266:A1 *251:A 1.19928e-05
12 *266:A1 *265:B1_N 1.94723e-05
13 *266:A1 *266:A2 0.000291035
14 *54:8 *84:72 0.000309381
15 *54:16 *250:A_N 4.66108e-05
16 *54:16 *253:B 3.51884e-05
17 *54:16 *57:18 8.49042e-05
18 *54:16 *84:72 5.63861e-05
19 *54:36 *251:A 2.62524e-05
20 *54:36 *251:B 7.31592e-05
21 *54:36 *266:A2 0
22 *54:36 *57:8 8.64421e-05
23 *284:A *54:16 3.98127e-05
24 *284:A *54:36 8.47372e-05
25 *35:69 *266:A1 7.06865e-05
26 *35:69 *54:16 0
*RES
1 *248:Y *54:8 6.465 
2 *54:8 *54:16 7.385 
3 *54:16 *252:A 1.6 
4 *54:16 *253:A 3.79 
5 *54:8 *54:36 5.885 
6 *54:36 *257:A1 1.6 
7 *54:36 *266:A1 10.025 
*END

*D_NET *55 0.000607438
*CONN
*I *257:B1 I *D sky130_fd_sc_hd__a21o_1
*I *251:A I *D sky130_fd_sc_hd__nor2_1
*I *249:X O *D sky130_fd_sc_hd__and2b_1
*CAP
1 *257:B1 1.74014e-05
2 *251:A 0.000149558
3 *249:X 6.65003e-05
4 *55:6 0.00023346
5 *251:A *57:8 5.13694e-05