*SPEF "ieee 1481-1999"
*DESIGN "counter"
*DATE "03:22:19 Friday December 20, 2024"
*VENDOR "The OpenROAD Project"
*PROGRAM "OpenROAD"
*VERSION "b16bda7e82721d10566ff7e2b68f1ff0be9f9e38"
*DESIGN_FLOW "NAME_SCOPE LOCAL" "PIN_CAP NONE"
*DIVIDER /
*DELIMITER :
*BUS_DELIMITER []
*T_UNIT 1 NS
*C_UNIT 1 PF
*R_UNIT 1 OHM
*L_UNIT 1 HENRY

*NAME_MAP
*3 clk
*4 count[0]
*5 count[1]
*6 count[2]
*7 count[3]
*8 count[4]
*9 count[5]
*10 count[6]
*11 count[7]
*12 data[0]
*13 data[1]
*14 data[2]
*15 data[3]
*16 data[4]
*17 data[5]
*18 data[6]
*19 data[7]
*20 enable
*21 preload
*22 resetn
*23 up_down
*24 _000_
*25 _001_
*26 _002_
*27 _003_
*28 _004_
*29 _005_
*30 _006_
*31 _007_
*32 _008_
*33 _009_
*34 _010_
*35 _011_
*36 _012_
*37 _013_
*38 _014_
*39 _015_
*40 _016_
*41 _017_
*42 _018_
*43 _019_
*44 _020_
*45 _021_
*46 _022_
*47 _023_
*48 _024_
*49 _025_
*50 _026_
*51 _027_
*52 _028_
*53 _029_
*54 _030_
*55 _031_
*56 _032_
*57 _033_
*58 _034_
*59 _035_
*60 _036_
*61 _037_
*62 _038_
*63 _039_
*64 _040_
*65 _041_
*66 _042_
*67 _043_
*68 _044_
*69 _045_
*70 _046_
*71 _047_
*72 _048_
*73 _049_
*74 _050_
*75 _051_
*76 _052_
*77 _053_
*78 clknet_0_clk
*79 clknet_1_0__leaf_clk
*80 clknet_1_1__leaf_clk
*81 net1
*82 net10
*83 net11
*84 net12
*85 net13
*86 net14
*87 net15
*88 net16
*89 net17
*90 net18
*91 net19
*92 net2
*93 net20
*94 net3
*95 net4
*96 net5
*97 net6
*98 net7
*99 net8
*100 net9
*101 FILLER_0_0_15
*102 FILLER_0_0_23
*103 FILLER_0_0_27
*104 FILLER_0_0_29
*105 FILLER_0_0_3
*106 FILLER_0_0_37
*107 FILLER_0_0_41
*108 FILLER_0_0_51
*109 FILLER_0_0_55
*110 FILLER_0_0_70
*111 FILLER_0_10_14
*112 FILLER_0_10_21
*113 FILLER_0_10_27
*114 FILLER_0_10_29
*115 FILLER_0_10_49
*116 FILLER_0_10_6
*117 FILLER_0_10_62
*118 FILLER_0_10_74
*119 FILLER_0_11_15
*120 FILLER_0_11_24
*121 FILLER_0_11_51
*122 FILLER_0_11_55
*123 FILLER_0_11_57
*124 FILLER_0_11_6
*125 FILLER_0_11_69
*126 FILLER_0_11_77
*127 FILLER_0_12_15
*128 FILLER_0_12_27
*129 FILLER_0_12_29
*130 FILLER_0_12_3
*131 FILLER_0_12_37
*132 FILLER_0_12_41
*133 FILLER_0_12_48
*134 FILLER_0_12_57
*135 FILLER_0_12_69
*136 FILLER_0_12_77
*137 FILLER_0_1_54
*138 FILLER_0_1_57
*139 FILLER_0_2_14
*140 FILLER_0_2_24
*141 FILLER_0_2_29
*142 FILLER_0_2_44
*143 FILLER_0_2_6
*144 FILLER_0_2_70
*145 FILLER_0_3_13
*146 FILLER_0_3_21
*147 FILLER_0_3_30
*148 FILLER_0_3_34
*149 FILLER_0_3_53
*150 FILLER_0_3_61
*151 FILLER_0_3_73
*152 FILLER_0_3_77
*153 FILLER_0_4_15
*154 FILLER_0_4_27
*155 FILLER_0_4_3
*156 FILLER_0_4_39
*157 FILLER_0_4_43
*158 FILLER_0_5_18
*159 FILLER_0_5_35
*160 FILLER_0_5_7
*161 FILLER_0_5_71
*162 FILLER_0_6_18
*163 FILLER_0_6_26
*164 FILLER_0_6_29
*165 FILLER_0_6_57
*166 FILLER_0_6_73
*167 FILLER_0_7_35
*168 FILLER_0_7_57
*169 FILLER_0_7_67
*170 FILLER_0_7_9
*171 FILLER_0_8_17
*172 FILLER_0_8_25
*173 FILLER_0_8_49
*174 FILLER_0_8_9
*175 FILLER_0_9_23
*176 FILLER_0_9_29
*177 FILLER_0_9_50
*178 FILLER_0_9_57
*179 FILLER_0_9_63
*180 FILLER_0_9_71
*181 PHY_EDGE_ROW_0_Left_13
*182 PHY_EDGE_ROW_0_Right_0
*183 PHY_EDGE_ROW_10_Left_23
*184 PHY_EDGE_ROW_10_Right_10
*185 PHY_EDGE_ROW_11_Left_24
*186 PHY_EDGE_ROW_11_Right_11
*187 PHY_EDGE_ROW_12_Left_25
*188 PHY_EDGE_ROW_12_Right_12
*189 PHY_EDGE_ROW_1_Left_14
*190 PHY_EDGE_ROW_1_Right_1
*191 PHY_EDGE_ROW_2_Left_15
*192 PHY_EDGE_ROW_2_Right_2
*193 PHY_EDGE_ROW_3_Left_16
*194 PHY_EDGE_ROW_3_Right_3
*195 PHY_EDGE_ROW_4_Left_17
*196 PHY_EDGE_ROW_4_Right_4
*197 PHY_EDGE_ROW_5_Left_18
*198 PHY_EDGE_ROW_5_Right_5
*199 PHY_EDGE_ROW_6_Left_19
*200 PHY_EDGE_ROW_6_Right_6
*201 PHY_EDGE_ROW_7_Left_20
*202 PHY_EDGE_ROW_7_Right_7
*203 PHY_EDGE_ROW_8_Left_21
*204 PHY_EDGE_ROW_8_Right_8
*205 PHY_EDGE_ROW_9_Left_22
*206 PHY_EDGE_ROW_9_Right_9
*207 TAP_TAPCELL_ROW_0_26
*208 TAP_TAPCELL_ROW_0_27
*209 TAP_TAPCELL_ROW_10_37
*210 TAP_TAPCELL_ROW_11_38
*211 TAP_TAPCELL_ROW_12_39
*212 TAP_TAPCELL_ROW_12_40
*213 TAP_TAPCELL_ROW_1_28
*214 TAP_TAPCELL_ROW_2_29
*215 TAP_TAPCELL_ROW_3_30
*216 TAP_TAPCELL_ROW_4_31
*217 TAP_TAPCELL_ROW_5_32
*218 TAP_TAPCELL_ROW_6_33
*219 TAP_TAPCELL_ROW_7_34
*220 TAP_TAPCELL_ROW_8_35
*221 TAP_TAPCELL_ROW_9_36
*222 _054_
*223 _055_
*224 _056_
*225 _057_
*226 _058_
*227 _059_
*228 _060_
*229 _061_
*230 _062_
*231 _063_
*232 _064_
*233 _065_
*234 _066_
*235 _067_
*236 _068_
*237 _069_
*238 _070_
*239 _071_
*240 _072_
*241 _073_
*242 _074_
*243 _075_
*244 _076_
*245 _077_
*246 _078_
*247 _079_
*248 _080_
*249 _081_
*250 _082_
*251 _083_
*252 _084_
*253 _085_
*254 _086_
*255 _087_
*256 _088_
*257 _089_
*258 _090_
*259 _091_
*260 _092_
*261 _093_
*262 _094_
*263 _095_
*264 _096_
*265 _097_
*266 _098_
*267 _099_
*268 _100_
*269 _101_
*270 _102_
*271 _103_
*272 _104_
*273 _105_
*274 _106_
*275 _107_
*276 _108_
*277 _109_
*278 _110_
*279 _111_
*280 _112_
*281 _113_
*282 _114_
*283 _115_
*284 clkbuf_0_clk
*285 clkbuf_1_0__f_clk
*286 clkbuf_1_1__f_clk
*287 clkload0
*288 input1
*289 input10
*290 input11
*291 input12
*292 input2
*293 input3
*294 input4
*295 input5
*296 input6
*297 input7
*298 input8
*299 input9
*300 output13
*301 output14
*302 output15
*303 output16
*304 output17
*305 output18
*306 output19
*307 output20

*PORTS
clk I
count[0] O
count[1] O
count[2] O
count[3] O
count[4] O
count[5] O
count[6] O
count[7] O
data[0] I
data[1] I
data[2] I
data[3] I
data[4] I
data[5] I
data[6] I
data[7] I
enable I
preload I
resetn I
up_down I

*D_NET *3 0.00383905
*CONN
*P clk I
*I *284:A I *D sky130_fd_sc_hd__clkbuf_16
*CAP
1 clk 0.00178455
2 *284:A 0.00178455
3 *284:A count[2] 3.19385e-05
4 *284:A count[3] 0
5 *284:A *247:A2 0
6 *284:A *248:A1 3.85148e-05
7 *284:A *248:A2 0
8 *284:A *266:A2 0
9 *284:A *289:A 2.25951e-05
10 *284:A *35:39 5.49489e-05
11 *284:A *35:69 0
12 *284:A *54:16 3.88706e-05
13 *284:A *54:36 8.30773e-05
14 *284:A *84:46 0
*RES
1 clk *284:A 27.5559 
*END

*D_NET *4 0.000720049
*CONN
*P count[0] O
*I *300:X O *D sky130_fd_sc_hd__buf_1
*CAP
1 count[0] 0.000326868
2 *300:X 0.000326868
3 count[0] *223:A 0
4 count[0] *290:A 6.6313e-05
*RES
1 *300:X count[0] 18.9462 
*END

*D_NET *5 0.000826602
*CONN
*P count[1] O
*I *301:X O *D sky130_fd_sc_hd__buf_1
*CAP
1 count[1] 0.000410603
2 *301:X 0.000410603
3 count[1] *292:A 0
4 count[1] *82:52 5.39629e-06
*RES
1 *301:X count[1] 21.2286 
*END

*D_NET *6 0.000582902
*CONN
*P count[2] O
*I *302:X O *D sky130_fd_sc_hd__buf_1
*CAP
1 count[2] 0.000275482
2 *302:X 0.000275482
3 *284:A count[2] 3.19385e-05
*RES
1 *302:X count[2] 20.4803 
*END

*D_NET *7 0.00101325
*CONN
*P count[3] O
*I *303:X O *D sky130_fd_sc_hd__buf_1
*CAP
1 count[3] 0.000371488
2 *303:X 0.000371488
3 count[3] *289:A 2.87684e-05
4 count[3] *291:A 0
5 count[3] *294:A 3.19385e-05
6 count[3] *84:8 0.000141375
7 count[3] *84:10 6.8194e-05
8 *284:A count[3] 0
*RES
1 *303:X count[3] 20.7676 
*END

*D_NET *8 0.000406455
*CONN
*P count[4] O
*I *304:X O *D sky130_fd_sc_hd__buf_1
*CAP
1 count[4] 0.000126573
2 *304:X 0.000126573
3 count[4] *296:A 7.3448e-05
4 count[4] *299:A 6.70017e-05
5 count[4] *304:A 1.28585e-05
*RES
1 *304:X count[4] 18.0508 
*END

*D_NET *9 0.00047095
*CONN
*P count[5] O
*I *305:X O *D sky130_fd_sc_hd__buf_1
*CAP
1 count[5] 0.000198751
2 *305:X 0.000198751
3 count[5] *296:A 7.3448e-05
*RES
1 *305:X count[5] 18.6579 
*END

*D_NET *10 0.000932425
*CONN
*P count[6] O
*I *306:X O *D sky130_fd_sc_hd__buf_1
*CAP
1 count[6] 0.000466212
2 *306:X 0.000466212
3 count[6] *297:A 0
*RES
1 *306:X count[6] 23.175 
*END

*D_NET *11 0.000513733
*CONN
*P count[7] O
*I *307:X O *D sky130_fd_sc_hd__buf_1
*CAP
1 count[7] 0.000231055
2 *307:X 0.000231055
3 count[7] *291:A 0
4 count[7] *298:A 2.87684e-05
5 count[7] *93:23 2.28544e-05
*RES
1 *307:X count[7] 18.4264 
*END

*D_NET *12 0.00152512
*CONN
*P data[0] I
*I *288:A I *D sky130_fd_sc_hd__clkbuf_1
*CAP
1 data[0] 0.000612754
2 *288:A 0.000612754
3 *288:A *227:A2 1.21289e-05
4 *288:A *227:B1 0.000142856
5 *288:A *300:A 3.93247e-05
6 *288:A *32:6 4.88637e-05
7 *288:A *32:12 4.39965e-05
8 *288:A *83:10 1.24368e-05
*RES
1 data[0] *288:A 25.4964 
*END

*D_NET *13 0.00120043
*CONN
*P data[1] I
*I *292:A I *D sky130_fd_sc_hd__clkbuf_1
*CAP
1 data[1] 0.00044755
2 *292:A 0.00044755
3 *292:A *234:A1 9.90431e-05
4 *292:A *234:B1 0.000106358
5 *292:A *239:B1 6.5027e-05
6 *292:A *35:71 3.4896e-05
7 count[1] *292:A 0
*RES
1 data[1] *292:A 23.4429 
*END

*D_NET *14 0.00111542
*CONN
*P data[2] I
*I *293:A I *D sky130_fd_sc_hd__clkbuf_1
*CAP
1 data[2] 0.000505987
2 *293:A 0.000505987
3 *293:A *239:A1 1.24368e-05
4 *293:A *239:A2 1.92905e-05
5 *293:A *239:B1 0
6 *293:A *82:52 7.17235e-05
*RES
1 data[2] *293:A 23.3893 
*END

*D_NET *15 0.000688907
*CONN
*P data[3] I
*I *294:A I *D sky130_fd_sc_hd__clkbuf_1
*CAP
1 data[3] 0.000317696
2 *294:A 0.000317696
3 *294:A *291:A 2.15768e-05
4 *294:A *84:8 0
5 count[3] *294:A 3.19385e-05
*RES
1 data[3] *294:A 21.391 
*END

*D_NET *16 0.000593367
*CONN
*P data[4] I
*I *295:A I *D sky130_fd_sc_hd__clkbuf_1
*CAP
1 data[4] 0.000221871
2 *295:A 0.000221871
3 *295:A *290:A 0
4 *295:A *299:A 7.3448e-05
5 *295:A *89:10 7.6176e-05
*RES
1 data[4] *295:A 19.5686 
*END

*D_NET *17 0.00066847
*CONN
*P data[5] I
*I *296:A I *D sky130_fd_sc_hd__clkbuf_1
*CAP
1 data[5] 0.000260787
2 *296:A 0.000260787
3 *296:A *35:23 0
4 count[4] *296:A 7.3448e-05
5 count[5] *296:A 7.3448e-05
*RES
1 data[5] *296:A 20.1758 
*END

*D_NET *18 0.00115748
*CONN
*P data[6] I
*I *297:A I *D sky130_fd_sc_hd__clkbuf_1
*CAP
1 data[6] 0.000578739
2 *297:A 0.000578739
3 count[6] *297:A 0
*RES
1 data[6] *297:A 24.7821 
*END

*D_NET *19 0.000639325
*CONN
*P data[7] I
*I *298:A I *D sky130_fd_sc_hd__clkbuf_1
*CAP
1 data[7] 0.000293981
2 *298:A 0.000293981
3 *298:A *291:A 2.25951e-05
4 *298:A *93:23 0
5 count[7] *298:A 2.87684e-05
*RES
1 data[7] *298:A 21.0874 
*END

*D_NET *20 0.000478133
*CONN
*P enable I
*I *299:A I *D sky130_fd_sc_hd__buf_1
*CAP
1 enable 0.000149794
2 *299:A 0.000149794
3 *299:A *89:10 3.80952e-05
4 count[4] *299:A 6.70017e-05
5 *295:A *299:A 7.3448e-05
*RES
1 enable *299:A 18.6579 
*END

*D_NET *21 0.000669032
*CONN
*P preload I
*I *289:A I *D sky130_fd_sc_hd__buf_2
*CAP
1 preload 0.000308834
2 *289:A 0.000308834
3 *289:A *84:10 0
4 count[3] *289:A 2.87684e-05
5 *284:A *289:A 2.25951e-05
*RES
1 preload *289:A 21.391 
*END

*D_NET *22 0.00099468
*CONN
*P resetn I
*I *290:A I *D sky130_fd_sc_hd__buf_2
*CAP
1 resetn 0.00040633
2 *290:A 0.00040633
3 *290:A *223:A 0
4 *290:A *227:A2 0
5 *290:A *83:10 0
6 *290:A *85:14 0.000115707
7 count[0] *290:A 6.6313e-05
8 *295:A *290:A 0
*RES
1 resetn *290:A 22.6044 
*END

*D_NET *23 0.000565598
*CONN
*P up_down I
*I *291:A I *D sky130_fd_sc_hd__clkbuf_4
*CAP
1 up_down 0.000260713
2 *291:A 0.000260713
3 *291:A *274:B2 0
4 count[3] *291:A 0
5 count[7] *291:A 0
6 *294:A *291:A 2.15768e-05
7 *298:A *291:A 2.25951e-05
*RES
1 up_down *291:A 20.6554 
*END

*D_NET *24 0.00115308
*CONN
*I *276:D I *D sky130_fd_sc_hd__dfrtp_1
*I *228:Y O *D sky130_fd_sc_hd__a21oi_1
*CAP
1 *276:D 0.000277412
2 *228:Y 0.000277412
3 *276:D *228:B1 0.000340788
4 *276:D *32:12 1.41706e-05
5 *276:D *32:25 0.000115621
6 *276:D *36:24 5.58222e-06
7 *276:D *79:12 7.32955e-05
8 *276:D *79:14 4.87953e-05
*RES
1 *228:Y *276:D 34.6893 
*END

*D_NET *25 0.000412905
*CONN
*I *277:D I *D sky130_fd_sc_hd__dfrtp_1
*I *234:X O *D sky130_fd_sc_hd__a21o_1
*CAP
1 *277:D 0.000160702
2 *234:X 0.000160702
3 *277:D *301:A 5.45307e-05
4 *277:D *82:52 3.69697e-05
*RES
1 *234:X *277:D 30.1893 
*END

*D_NET *26 0.00050399
*CONN
*I *278:D I *D sky130_fd_sc_hd__dfrtp_2
*I *240:X O *D sky130_fd_sc_hd__a31o_1
*CAP
1 *278:D 0.000153881
2 *240:X 0.000153881
3 *278:D *240:B1 5.33786e-05
4 *278:D *278:RESET_B 0.00014285
*RES
1 *240:X *278:D 30.2964 
*END

*D_NET *27 0.000318586
*CONN
*I *279:D I *D sky130_fd_sc_hd__dfrtp_1
*I *246:X O *D sky130_fd_sc_hd__a221o_1
*CAP
1 *279:D 0.000108461
2 *246:X 0.000108461
3 *279:D *36:60 6.97972e-05
4 *279:D *88:25 3.18676e-05
*RES
1 *246:X *279:D 29.7786 
*END

*D_NET *28 0.000701108
*CONN
*I *280:D I *D sky130_fd_sc_hd__dfrtp_1
*I *255:X O *D sky130_fd_sc_hd__a31o_1
*CAP
1 *280:D 0.000175097
2 *255:X 0.000175097
3 *280:D *255:A2 0.00014285
4 *280:D *36:8 1.24368e-05
5 *280:D *36:16 0.000128146
6 *280:D *82:100 6.74815e-05
*RES
1 *255:X *280:D 31.0107 
*END

*D_NET *29 0.000432007
*CONN
*I *281:D I *D sky130_fd_sc_hd__dfrtp_1
*I *261:X O *D sky130_fd_sc_hd__a31o_1
*CAP
1 *281:D 0.000149108
2 *261:X 0.000149108
3 *281:D *261:A2 5.71472e-05
4 *281:D *261:A3 7.6644e-05
5 *281:D *261:B1 0
6 *281:D *266:A3 0
*RES
1 *261:X *281:D 30.0821 
*END

*D_NET *30 0.000870782
*CONN
*I *282:D I *D sky130_fd_sc_hd__dfrtp_1
*I *270:X O *D sky130_fd_sc_hd__a31o_1
*CAP
1 *282:D 0.000341751
2 *270:X 0.000341751
3 *282:D *269:A1 0
4 *282:D *270:A1 9.87672e-05
5 *282:D *282:CLK 4.92269e-05
6 *282:D *283:RESET_B 0
7 *282:D *80:12 3.92854e-05
*RES
1 *270:X *282:D 32.8723 
*END

*D_NET *31 0.000655042
*CONN
*I *283:D I *D sky130_fd_sc_hd__dfrtp_1
*I *275:X O *D sky130_fd_sc_hd__a21o_1
*CAP
1 *283:D 0.000203269
2 *275:X 0.000203269
3 *283:D *275:B1 9.91086e-05
4 *283:D *283:RESET_B 5.52302e-05
5 *283:D *36:60 9.41642e-05
*RES
1 *275:X *283:D 30.8321 
*END

*D_NET *32 0.00296593
*CONN
*I *227:B2 I *D sky130_fd_sc_hd__a22o_1
*I *232:A1 I *D sky130_fd_sc_hd__o21a_1
*I *235:A1 I *D sky130_fd_sc_hd__o21a_1
*I *231:A I *D sky130_fd_sc_hd__nand2_1
*I *222:Y O *D sky130_fd_sc_hd__inv_2
*CAP
1 *227:B2 1.63023e-05
2 *232:A1 0
3 *235:A1 9.02664e-06
4 *231:A 0
5 *222:Y 1.24967e-05
6 *32:25 0.000387617
7 *32:12 0.000562264
8 *32:6 0.000212473
9 *227:B2 *300:A 1.3701e-05
10 *235:A1 *235:A2 3.08664e-05
11 *235:A1 *36:32 5.65955e-05
12 *32:6 *227:A2 0.00010096
13 *32:12 *227:A1 0
14 *32:12 *227:A2 0.00018372
15 *32:12 *227:B1 0.000202891
16 *32:12 *228:B1 0
17 *32:12 *231:B 2.8266e-06
18 *32:12 *233:A2 0
19 *32:12 *234:A1 0.000127446
20 *32:12 *82:75 0.000245896
21 *32:25 *228:B1 0
22 *32:25 *231:B 5.15901e-05
23 *32:25 *234:A2 2.59355e-05
24 *32:25 *235:A2 2.12005e-05
25 *32:25 *285:A 0.000107503
26 *32:25 *287:A 5.52238e-05
27 *32:25 *36:24 0.000173372
28 *32:25 *36:32 0.000143375
29 *276:D *32:12 1.41706e-05
30 *276:D *32:25 0.000115621
31 *288:A *32:6 4.88637e-05
32 *288:A *32:12 4.39965e-05
*RES
1 *222:Y *32:6 10.2464 
2 *32:6 *32:12 11.2857 
3 *32:12 *231:A 13.8 
4 *32:12 *32:25 14.2321 
5 *32:25 *235:A1 9.83571 
6 *32:25 *232:A1 9.3 
7 *32:6 *227:B2 9.72857 
*END

*D_NET *33 0.00167377
*CONN
*I *227:A2 I *D sky130_fd_sc_hd__a22o_1
*I *223:Y O *D sky130_fd_sc_hd__inv_2
*CAP
1 *227:A2 0.000294739
2 *223:Y 0.000294739
3 *227:A2 *223:A 0.00027438
4 *227:A2 *227:A1 5.58941e-05
5 *227:A2 *234:A1 0
6 *227:A2 *300:A 9.60939e-05
7 *227:A2 *82:75 5.33005e-05
8 *227:A2 *83:10 0.000202842
9 *227:A2 *83:21 0.000104974
10 *288:A *227:A2 1.21289e-05
11 *290:A *227:A2 0
12 *32:6 *227:A2 0.00010096
13 *32:12 *227:A2 0.00018372
*RES
1 *223:Y *227:A2 44.9214 
*END

*D_NET *34 0.000312135
*CONN
*I *243:A2 I *D sky130_fd_sc_hd__o21ai_1
*I *224:Y O *D sky130_fd_sc_hd__inv_2
*CAP
1 *243:A2 0.000140134
2 *224:Y 0.000140134
3 *243:A2 *236:A 0
4 *243:A2 *247:A1 3.18676e-05
5 *243:A2 *36:45 0
*RES
1 *224:Y *243:A2 29.7786 
*END

*D_NET *35 0.0160774
*CONN
*I *260:B1 I *D sky130_fd_sc_hd__a22o_1
*I *269:B1 I *D sky130_fd_sc_hd__a22o_1
*I *233:B1 I *D sky130_fd_sc_hd__a22o_1
*I *227:B1 I *D sky130_fd_sc_hd__a22o_1
*I *239:B1 I *D sky130_fd_sc_hd__a22o_1
*I *246:B1 I *D sky130_fd_sc_hd__a221o_1
*I *274:B1 I *D sky130_fd_sc_hd__a22o_1
*I *254:B1 I *D sky130_fd_sc_hd__a22o_1
*I *225:Y O *D sky130_fd_sc_hd__nor2_2
*CAP
1 *260:B1 4.85615e-05
2 *269:B1 0.000226169
3 *233:B1 0
4 *227:B1 0.000344212
5 *239:B1 0.00115418
6 *246:B1 2.23854e-05
7 *274:B1 0.000276866
8 *254:B1 0.000201951
9 *225:Y 4.65883e-05
10 *35:71 0.00161451
11 *35:69 0.000747538
12 *35:39 0.0012729
13 *35:37 0.0020259
14 *35:29 0.00116183
15 *35:23 0.000824432
16 *35:8 0.000509568
17 *227:B1 *234:A1 0.000150624
18 *227:B1 *234:B1 2.89114e-05
19 *227:B1 *82:75 4.17014e-05
20 *254:B1 *225:A 0.000106511
21 *254:B1 *226:B 3.17163e-05
22 *254:B1 *254:A1 2.44318e-05
23 *254:B1 *83:62 0.000103267
24 *254:B1 *89:10 0
25 *254:B1 *89:14 1.21258e-05
26 *260:B1 *260:A2 5.52238e-05
27 *260:B1 *260:B2 5.52238e-05
28 *260:B1 *269:A1 5.80706e-06
29 *260:B1 *82:128 2.39876e-05
30 *269:B1 *269:A2 3.41517e-06
31 *269:B1 *270:A2 5.60962e-05
32 *269:B1 *70:12 0.000216342
33 *269:B1 *91:16 3.41572e-05
34 *269:B1 *91:29 3.08664e-05
35 *274:B1 *246:B2 6.05161e-06
36 *274:B1 *246:C1 3.40128e-05
37 *274:B1 *274:A1 0.000188713
38 *274:B1 *303:A 0
39 *274:B1 *36:60 0
40 *274:B1 *82:16 1.76135e-05
41 *274:B1 *84:8 0
42 *274:B1 *88:25 1.56e-05
43 *35:8 *89:14 9.90431e-05
44 *35:23 *304:A 0
45 *35:23 *82:128 0.000113877
46 *35:23 *83:62 0.000287301
47 *35:29 *260:B2 0.000300804
48 *35:29 *261:B1 5.52238e-05
49 *35:29 *269:A1 6.20492e-05
50 *35:29 *286:A 5.03772e-05
51 *35:29 *90:16 0.000400867
52 *35:37 *266:A2 0.000234529
53 *35:37 *70:12 0.00028541
54 *35:39 *82:31 0.000400867
55 *35:39 *88:25 0.000114902
56 *35:69 *234:A2 0.000315179
57 *35:69 *235:B1 0
58 *35:69 *250:A_N 5.24274e-05
59 *35:69 *265:B1_N 6.13157e-05
60 *35:69 *266:A1 7.6644e-05
61 *35:69 *266:A2 3.54995e-05
62 *35:69 *280:CLK 2.96898e-05
63 *35:69 *285:A 0
64 *35:69 *54:16 0
65 *35:69 *57:18 0.000216205
66 *35:69 *79:38 2.60251e-05
67 *35:69 *84:85 5.26184e-05
68 *35:69 *86:32 0.000159086
69 *35:71 *234:A2 0.000222878
70 *35:71 *301:A 0.000194804
71 *35:71 *86:32 9.11048e-06
72 *284:A *35:39 5.49489e-05
73 *284:A *35:69 0
74 *288:A *227:B1 0.000142856
75 *292:A *239:B1 6.5027e-05
76 *292:A *35:71 3.4896e-05
77 *293:A *239:B1 0
78 *296:A *35:23 0
79 *32:12 *227:B1 0.000202891
*RES
1 *225:Y *35:8 14.7464 
2 *35:8 *254:B1 17.3357 
3 *35:8 *35:23 6.5 
4 *35:23 *35:29 18.9821 
5 *35:29 *35:37 13.2857 
6 *35:37 *35:39 12.4464 
7 *35:39 *274:B1 24.1214 
8 *35:39 *246:B1 9.72857 
9 *35:37 *35:69 18.2857 
10 *35:69 *35:71 3.61607 
11 *35:71 *239:B1 36.6482 
12 *35:71 *227:B1 20.7911 
13 *35:69 *233:B1 13.8 
14 *35:29 *269:B1 18.1571 
15 *35:23 *260:B1 15.0679 
*END

*D_NET *36 0.0103455
*CONN
*I *255:A1 I *D sky130_fd_sc_hd__a31o_1
*I *261:A1 I *D sky130_fd_sc_hd__a31o_1
*I *228:A2 I *D sky130_fd_sc_hd__a21oi_1
*I *232:B1 I *D sky130_fd_sc_hd__o21a_1
*I *270:A1 I *D sky130_fd_sc_hd__a31o_1
*I *275:A1 I *D sky130_fd_sc_hd__a21o_1
*I *244:B1 I *D sky130_fd_sc_hd__o21ai_1
*I *240:A1 I *D sky130_fd_sc_hd__a31o_1
*I *226:X O *D sky130_fd_sc_hd__and2b_2
*CAP
1 *255:A1 0
2 *261:A1 0.000309161
3 *228:A2 2.46494e-05
4 *232:B1 0
5 *270:A1 0.000432884
6 *275:A1 0
7 *244:B1 2.04426e-05
8 *240:A1 0.000174021
9 *226:X 0.000124147
10 *36:60 0.000942871
11 *36:45 0.000743027
12 *36:32 0.0010098
13 *36:24 0.00100165
14 *36:16 0.000639566
15 *36:10 0.000545613
16 *36:8 0.000124147
17 *228:A2 *228:A1 1.04232e-05
18 *240:A1 *240:A2 5.71472e-05
19 *240:A1 *240:A3 5.5782e-05
20 *240:A1 *278:RESET_B 0.000232399
21 *240:A1 *82:31 0
22 *240:A1 *87:34 0
23 *244:B1 *244:A1 5.33005e-05
24 *244:B1 *84:42 2.59355e-05
25 *261:A1 *254:A2 2.72545e-05
26 *261:A1 *255:B1 0.000128146
27 *261:A1 *261:A2 5.33433e-05
28 *261:A1 *265:A1 0
29 *261:A1 *82:100 1.41029e-05
30 *261:A1 *82:128 0
31 *261:A1 *89:20 0
32 *270:A1 *270:A2 0.000112073
33 *270:A1 *270:A3 2.10756e-05
34 *270:A1 *275:A2 5.71472e-05
35 *36:8 *255:A2 3.37478e-05
36 *36:8 *82:100 5.33433e-05
37 *36:16 *250:A_N 0
38 *36:16 *255:A3 0
39 *36:16 *82:100 6.34941e-05
40 *36:24 *228:A1 2.27416e-05
41 *36:24 *250:A_N 0.000314139
42 *36:24 *287:A 5.52238e-05
43 *36:32 *235:A2 2.49422e-05
44 *36:32 *235:B1 6.35395e-05
45 *36:32 *248:A2 4.43256e-05
46 *36:32 *43:8 6.42704e-05
47 *36:32 *44:6 0.00044366
48 *36:32 *44:17 0.000131439
49 *36:45 *236:A 0
50 *36:45 *240:A3 1.30731e-05
51 *36:45 *247:A1 0.000357022
52 *36:45 *50:10 2.96981e-05
53 *36:45 *82:16 1.52978e-05
54 *36:45 *84:12 0
55 *36:45 *87:34 0
56 *36:60 *246:A2 0.000173804
57 *36:60 *247:A1 4.46186e-06
58 *36:60 *274:A1 0.000103051
59 *36:60 *274:A2 0.000187883
60 *36:60 *275:A2 5.71472e-05
61 *36:60 *275:B1 0.000290986
62 *36:60 *279:CLK 0
63 *36:60 *279:RESET_B 0
64 *36:60 *82:16 7.58516e-05
65 *36:60 *84:8 0
66 *36:60 *84:131 0
67 *235:A1 *36:32 5.65955e-05
68 *243:A2 *36:45 0
69 *274:B1 *36:60 0
70 *276:D *36:24 5.58222e-06
71 *279:D *36:60 6.97972e-05
72 *280:D *36:8 1.24368e-05
73 *280:D *36:16 0.000128146
74 *282:D *270:A1 9.87672e-05
75 *283:D *36:60 9.41642e-05
76 *32:25 *36:24 0.000173372
77 *32:25 *36:32 0.000143375
*RES
1 *226:X *36:8 11.4964 
2 *36:8 *36:10 4.5 
3 *36:10 *36:16 9.10714 
4 *36:16 *36:24 7.67857 
5 *36:24 *36:32 16.9821 
6 *36:32 *240:A1 18.2286 
7 *36:32 *36:45 5.28571 
8 *36:45 *244:B1 14.3357 
9 *36:45 *36:60 17.8214 
10 *36:60 *275:A1 9.3 
11 *36:60 *270:A1 26.1393 
12 *36:24 *232:B1 9.3 
13 *36:16 *228:A2 10.0321 
14 *36:10 *261:A1 20.1393 
15 *36:8 *255:A1 9.3 
*END

*D_NET *37 0.00101892
*CONN
*I *228:B1 I *D sky130_fd_sc_hd__a21oi_1
*I *227:X O *D sky130_fd_sc_hd__a22o_1
*CAP
1 *228:B1 0.000329365
2 *227:X 0.000329365
3 *228:B1 *227:A1 4.1331e-06
4 *228:B1 *285:A 0
5 *228:B1 *79:12 0
6 *228:B1 *82:100 1.52681e-05
7 *276:D *228:B1 0.000340788
8 *32:12 *228:B1 0
9 *32:25 *228:B1 0
*RES
1 *227:X *228:B1 34.7071 
*END

*D_NET *38 0.000590241
*CONN
*I *235:B1 I *D sky130_fd_sc_hd__o21a_1
*I *229:Y O *D sky130_fd_sc_hd__nand2b_1
*CAP
1 *235:B1 0.000213219
2 *229:Y 0.000213219
3 *235:B1 *230:B 0.000100262
4 *235:B1 *39:12 0
5 *235:B1 *84:52 0
6 *35:69 *235:B1 0
7 *36:32 *235:B1 6.35395e-05
*RES
1 *229:Y *235:B1 31.4571 
*END

*D_NET *39 0.0016821
*CONN
*I *231:B I *D sky130_fd_sc_hd__nand2_1
*I *232:A2 I *D sky130_fd_sc_hd__o21a_1
*I *235:A2 I *D sky130_fd_sc_hd__o21a_1
*I *230:X O *D sky130_fd_sc_hd__xor2_1
*CAP
1 *231:B 0.000258031
2 *232:A2 0
3 *235:A2 9.917e-05
4 *230:X 0
5 *39:12 0.000226042
6 *39:4 0.000384903
7 *231:B *233:A2 5.80706e-06
8 *231:B *234:A2 4.97121e-06
9 *231:B *285:A 0.000169698
10 *231:B *79:14 5.52302e-05
11 *231:B *79:38 0.000171375
12 *231:B *83:27 3.37161e-05
13 *231:B *86:32 8.51331e-05
14 *39:12 *86:32 5.65955e-05
15 *235:A1 *235:A2 3.08664e-05
16 *235:B1 *39:12 0
17 *32:12 *231:B 2.8266e-06
18 *32:25 *231:B 5.15901e-05
19 *32:25 *235:A2 2.12005e-05
20 *36:32 *235:A2 2.49422e-05
*RES
1 *230:X *39:4 9.3 
2 *39:4 *39:12 11.1786 
3 *39:12 *235:A2 10.6571 
4 *39:12 *232:A2 9.3 
5 *39:4 *231:B 24.3893 
*END

*D_NET *40 0.00102099
*CONN
*I *234:A1 I *D sky130_fd_sc_hd__a21o_1
*I *231:Y O *D sky130_fd_sc_hd__nand2_1
*CAP
1 *234:A1 0.00028632
2 *231:Y 0.00028632
3 *234:A1 *234:A2 0
4 *234:A1 *234:B1 7.12393e-05
5 *227:A2 *234:A1 0
6 *227:B1 *234:A1 0.000150624
7 *292:A *234:A1 9.90431e-05
8 *32:12 *234:A1 0.000127446
*RES
1 *231:Y *234:A1 32.7429 
*END

*D_NET *41 0.00144509
*CONN
*I *234:A2 I *D sky130_fd_sc_hd__a21o_1
*I *232:X O *D sky130_fd_sc_hd__o21a_1
*CAP
1 *234:A2 0.000277148
2 *232:X 0.000277148
3 *234:A2 *233:A2 0.000152333
4 *234:A2 *234:B1 7.80714e-06
5 *234:A2 *79:38 0.00014759
6 *234:A2 *82:75 1.41029e-05
7 *231:B *234:A2 4.97121e-06
8 *234:A1 *234:A2 0
9 *32:25 *234:A2 2.59355e-05
10 *35:69 *234:A2 0.000315179
11 *35:71 *234:A2 0.000222878
*RES
1 *232:X *234:A2 34.9393 
*END

*D_NET *42 0.000819671
*CONN
*I *234:B1 I *D sky130_fd_sc_hd__a21o_1
*I *233:X O *D sky130_fd_sc_hd__a22o_1
*CAP
1 *234:B1 0.000184997
2 *233:X 0.000184997
3 *234:B1 *233:A2 2.44318e-05
4 *234:B1 *301:A 5.65955e-05
5 *234:B1 *82:75 0.000154332
6 *227:B1 *234:B1 2.89114e-05
7 *234:A1 *234:B1 7.12393e-05
8 *234:A2 *234:B1 7.80714e-06
9 *292:A *234:B1 0.000106358
*RES
1 *233:X *234:B1 32.3857 
*END

*D_NET *43 0.00122158
*CONN
*I *248:A1 I *D sky130_fd_sc_hd__o31ai_2
*I *237:A I *D sky130_fd_sc_hd__nand2_1
*I *238:A I *D sky130_fd_sc_hd__or2_1
*I *235:X O *D sky130_fd_sc_hd__o21a_1
*CAP
1 *248:A1 0.00012669
2 *237:A 1.97597e-05
3 *238:A 6.43408e-05
4 *235:X 0
5 *43:8 0.000283084
6 *43:4 0.000325673
7 *237:A *238:B 1.00733e-05
8 *237:A *44:17 5.04841e-06
9 *238:A *44:6 5.62995e-05
10 *238:A *44:17 3.18676e-05
11 *248:A1 *248:A2 0
12 *248:A1 *248:A3 3.4846e-06
13 *248:A1 *84:52 0
14 *248:A1 *84:72 5.49544e-05
15 *43:8 *248:A2 9.60875e-05
16 *43:8 *44:17 4.14279e-05
17 *284:A *248:A1 3.85148e-05
18 *36:32 *43:8 6.42704e-05
*RES
1 *235:X *43:4 9.3 
2 *43:4 *43:8 3.83929 
3 *43:8 *238:A 10.6571 
4 *43:8 *237:A 9.72857 
5 *43:4 *248:A1 20.4786 
*END

*D_NET *44 0.00253498
*CONN
*I *248:A2 I *D sky130_fd_sc_hd__o31ai_2
*I *237:B I *D sky130_fd_sc_hd__nand2_1
*I *238:B I *D sky130_fd_sc_hd__or2_1
*I *236:X O *D sky130_fd_sc_hd__xor2_1
*CAP
1 *248:A2 0.00020987
2 *237:B 0
3 *238:B 1.60348e-05
4 *236:X 0.000215307
5 *44:17 0.000242273
6 *44:6 0.000263744
7 *248:A2 *84:52 0.000148031
8 *248:A2 *84:72 7.57394e-05
9 *44:6 *240:A3 0.000142856
10 *44:6 *247:A1 0.000303747
11 *44:6 *87:43 5.71472e-05
12 *237:A *238:B 1.00733e-05
13 *237:A *44:17 5.04841e-06
14 *238:A *44:6 5.62995e-05
15 *238:A *44:17 3.18676e-05
16 *248:A1 *248:A2 0
17 *284:A *248:A2 0
18 *36:32 *248:A2 4.43256e-05
19 *36:32 *44:6 0.00044366
20 *36:32 *44:17 0.000131439
21 *43:8 *248:A2 9.60875e-05
22 *43:8 *44:17 4.14279e-05
*RES
1 *236:X *44:6 16.4071 
2 *44:6 *238:B 9.72857 
3 *44:6 *44:17 1.78571 
4 *44:17 *237:B 9.3 
5 *44:17 *248:A2 22.9786 
*END

*D_NET *45 0.00073871
*CONN
*I *240:A2 I *D sky130_fd_sc_hd__a31o_1
*I *237:Y O *D sky130_fd_sc_hd__nand2_1
*CAP
1 *240:A2 0.000226063
2 *237:Y 0.000226063
3 *240:A2 *278:RESET_B 0.000161937
4 *240:A2 *82:31 0
5 *240:A2 *84:52 6.75007e-05
6 *240:A1 *240:A2 5.71472e-05
*RES
1 *237:Y *240:A2 32.6536 
*END

*D_NET *46 0.0014396
*CONN
*I *243:B1 I *D sky130_fd_sc_hd__o21ai_1
*I *240:A3 I *D sky130_fd_sc_hd__a31o_1
*I *238:X O *D sky130_fd_sc_hd__or2_1
*CAP
1 *243:B1 0.000327748
2 *240:A3 0.000185315
3 *238:X 0
4 *46:4 0.000513063
5 *240:A3 *247:A1 3.47641e-06
6 *240:A3 *82:31 0
7 *243:B1 *247:A1 0
8 *243:B1 *82:31 0.000198283
9 *240:A1 *240:A3 5.5782e-05
10 *36:45 *240:A3 1.30731e-05
11 *44:6 *240:A3 0.000142856
*RES
1 *238:X *46:4 9.3 
2 *46:4 *240:A3 22.2107 
3 *46:4 *243:B1 24.2643 
*END

*D_NET *47 0.000654185
*CONN
*I *240:B1 I *D sky130_fd_sc_hd__a31o_1
*I *239:X O *D sky130_fd_sc_hd__a22o_1
*CAP
1 *240:B1 0.00013953
2 *239:X 0.00013953
3 *240:B1 *278:RESET_B 0
4 *240:B1 *82:31 0.000321745
5 *278:D *240:B1 5.33786e-05
*RES
1 *239:X *240:B1 31.6714 
*END

*D_NET *48 0.00255268
*CONN
*I *242:A I *D sky130_fd_sc_hd__inv_2
*I *244:A1 I *D sky130_fd_sc_hd__o21ai_1
*I *245:A1 I *D sky130_fd_sc_hd__a21oi_1
*I *241:Y O *D sky130_fd_sc_hd__xnor2_1
*CAP
1 *242:A 0.000326872
2 *244:A1 4.48402e-05
3 *245:A1 0
4 *241:Y 0.00013049
5 *48:21 0.000588701
6 *48:12 0.000347479
7 *242:A *247:A1 0.000267421
8 *242:A *247:A2 5.52238e-05
9 *242:A *247:B1_N 1.92905e-05
10 *242:A *248:A3 2.51343e-06
11 *242:A *84:42 4.06288e-05
12 *244:A1 *244:A2 5.52302e-05
13 *244:A1 *245:B1 0.000139913
14 *244:A1 *247:A1 1.24368e-05
15 *244:A1 *84:42 2.05757e-05
16 *48:12 *245:B1 9.90431e-05
17 *48:12 *246:C1 7.83659e-05
18 *48:12 *82:16 1.55885e-05
19 *48:12 *84:10 4.15914e-05
20 *48:21 *244:A2 0
21 *48:21 *245:B1 0.000213179
22 *244:B1 *244:A1 5.33005e-05
*RES
1 *241:Y *48:12 20.6929 
2 *48:12 *245:A1 9.3 
3 *48:12 *48:21 3.32143 
4 *48:21 *244:A1 11.0679 
5 *48:21 *242:A 16.1571 
*END

*D_NET *49 0.000373844
*CONN
*I *248:A3 I *D sky130_fd_sc_hd__o31ai_2
*I *242:Y O *D sky130_fd_sc_hd__inv_2
*CAP
1 *248:A3 0.000141371
2 *242:Y 0.000141371
3 *248:A3 *84:46 6.75007e-05
4 *248:A3 *84:52 1.76039e-05
5 *242:A *248:A3 2.51343e-06
6 *248:A1 *248:A3 3.4846e-06
*RES
1 *242:Y *248:A3 30.0821 
*END

*D_NET *50 0.000594438
*CONN
*I *245:A2 I *D sky130_fd_sc_hd__a21oi_1
*I *244:A2 I *D sky130_fd_sc_hd__o21ai_1
*I *243:Y O *D sky130_fd_sc_hd__o21ai_1
*CAP
1 *245:A2 0
2 *244:A2 4.69074e-05
3 *243:Y 0.000115355
4 *50:10 0.000162262
5 *244:A2 *245:B1 1.98839e-05
6 *244:A2 *82:16 6.37237e-05
7 *244:A2 *84:42 2.44318e-05
8 *50:10 *246:C1 2.10446e-05
9 *50:10 *82:16 5.59013e-05
10 *50:10 *84:10 0
11 *50:10 *84:12 0
12 *244:A1 *244:A2 5.52302e-05
13 *36:45 *50:10 2.96981e-05
14 *48:21 *244:A2 0
*RES
1 *243:Y *50:10 20.2464 
2 *50:10 *244:A2 10.675 
3 *50:10 *245:A2 9.3 
*END

*D_NET *51 0.000674098
*CONN
*I *245:B1 I *D sky130_fd_sc_hd__a21oi_1
*I *244:Y O *D sky130_fd_sc_hd__o21ai_1
*CAP
1 *245:B1 6.92267e-05
2 *244:Y 6.92267e-05
3 *245:B1 *82:16 6.36254e-05
4 *244:A1 *245:B1 0.000139913
5 *244:A2 *245:B1 1.98839e-05
6 *48:12 *245:B1 9.90431e-05
7 *48:21 *245:B1 0.000213179
*RES
1 *244:Y *245:B1 21.6 
*END

*D_NET *52 0.000406988
*CONN
*I *246:C1 I *D sky130_fd_sc_hd__a221o_1
*I *245:Y O *D sky130_fd_sc_hd__a21oi_1
*CAP
1 *246:C1 0.000107958
2 *245:Y 0.000107958
3 *246:C1 *82:16 0
4 *246:C1 *84:8 2.8266e-06
5 *246:C1 *84:10 5.48219e-05
6 *274:B1 *246:C1 3.40128e-05
7 *48:12 *246:C1 7.83659e-05
8 *50:10 *246:C1 2.10446e-05
*RES
1 *245:Y *246:C1 30.4571 
*END

*D_NET *53 0.000445732
*CONN
*I *248:B1 I *D sky130_fd_sc_hd__o31ai_2
*I *247:Y O *D sky130_fd_sc_hd__o21bai_1
*CAP
1 *248:B1 0.000118734
2 *247:Y 0.000118734
3 *248:B1 *82:31 0
4 *248:B1 *84:42 5.52238e-05
5 *248:B1 *84:46 0.000117896
6 *248:B1 *84:52 3.51442e-05
*RES
1 *247:Y *248:B1 30.0821 
*END

*D_NET *54 0.00392198
*CONN
*I *266:A1 I *D sky130_fd_sc_hd__a31o_1
*I *257:A1 I *D sky130_fd_sc_hd__a21o_1
*I *253:A I *D sky130_fd_sc_hd__nand2_1
*I *252:A I *D sky130_fd_sc_hd__or2_1
*I *248:Y O *D sky130_fd_sc_hd__o31ai_2
*CAP
1 *266:A1 0.000211156
2 *257:A1 0
3 *253:A 0.000120512
4 *252:A 0
5 *248:Y 0.00016639
6 *54:36 0.000461811
7 *54:16 0.000564737
8 *54:8 0.000861271
9 *253:A *253:B 0.00014285
10 *253:A *280:CLK 4.72917e-05
11 *266:A1 *251:A 1.21258e-05
12 *266:A1 *265:B1_N 1.91512e-05
13 *266:A1 *266:A2 0.000320203
14 *54:8 *84:72 0.000356582
15 *54:16 *250:A_N 5.33005e-05
16 *54:16 *253:B 3.68898e-05
17 *54:16 *57:18 8.95364e-05
18 *54:16 *84:72 5.81578e-05
19 *54:36 *251:A 2.69179e-05
20 *54:36 *251:B 7.45188e-05
21 *54:36 *266:A2 0
22 *54:36 *57:8 9.99853e-05
23 *284:A *54:16 3.88706e-05
24 *284:A *54:36 8.30773e-05
25 *35:69 *266:A1 7.6644e-05
26 *35:69 *54:16 0
*RES
1 *248:Y *54:8 17.2107 
2 *54:8 *54:16 10.9107 
3 *54:16 *252:A 9.3 
4 *54:16 *253:A 11.9071 
5 *54:8 *54:36 9.125 
6 *54:36 *257:A1 9.3 
7 *54:36 *266:A1 23.5679 
*END

*D_NET *55 0.000672258
*CONN
*I *257:B1 I *D sky130_fd_sc_hd__a21o_1
*I *251:A I *D sky130_fd_sc_hd__nor2_1