*SPEF "ieee 1481-1999"
*DESIGN "counter"
*DATE "12:39:25 Wednesday December 04, 2024"
*VENDOR "The OpenROAD Project"
*PROGRAM "OpenROAD"
*VERSION "b16bda7e82721d10566ff7e2b68f1ff0be9f9e38"
*DESIGN_FLOW "NAME_SCOPE LOCAL" "PIN_CAP NONE"
*DIVIDER /
*DELIMITER :
*BUS_DELIMITER []
*T_UNIT 1 NS
*C_UNIT 1 PF
*R_UNIT 1 OHM
*L_UNIT 1 HENRY

*NAME_MAP
*3 clk
*4 count[0]
*5 count[1]
*6 count[2]
*7 count[3]
*8 count[4]
*9 count[5]
*10 count[6]
*11 count[7]
*12 data[0]
*13 data[1]
*14 data[2]
*15 data[3]
*16 data[4]
*17 data[5]
*18 data[6]
*19 data[7]
*20 enable
*21 preload
*22 resetn
*23 up_down
*24 _000_
*25 _001_
*26 _002_
*27 _003_
*28 _004_
*29 _005_
*30 _006_
*31 _007_
*32 _008_
*33 _009_
*34 _010_
*35 _011_
*36 _012_
*37 _013_
*38 _014_
*39 _015_
*40 _016_
*41 _017_
*42 _018_
*43 _019_
*44 _020_
*45 _021_
*46 _022_
*47 _023_
*48 _024_
*49 _025_
*50 _026_
*51 _027_
*52 _028_
*53 _029_
*54 _030_
*55 _031_
*56 _032_
*57 _033_
*58 _034_
*59 _035_
*60 _036_
*61 _037_
*62 _038_
*63 _039_
*64 _040_
*65 _041_
*66 _042_
*67 _043_
*68 _044_
*69 _045_
*70 _046_
*71 _047_
*72 _048_
*73 _049_
*74 _050_
*75 _051_
*76 _052_
*77 _053_
*78 clknet_0_clk
*79 clknet_1_0__leaf_clk
*80 clknet_1_1__leaf_clk
*81 net1
*82 net10
*83 net11
*84 net12
*85 net13
*86 net14
*87 net15
*88 net16
*89 net17
*90 net18
*91 net19
*92 net2
*93 net20
*94 net21
*95 net22
*96 net23
*97 net24
*98 net25
*99 net26
*100 net27
*101 net28
*102 net29
*103 net3
*104 net30
*105 net31
*106 net32
*107 net34
*108 net35
*109 net4
*110 net5
*111 net6
*112 net7
*113 net8
*114 net9
*115 FILLER_0_0_22
*116 FILLER_0_0_27
*117 FILLER_0_0_29
*118 FILLER_0_0_3
*119 FILLER_0_0_55
*120 FILLER_0_10_10
*121 FILLER_0_10_17
*122 FILLER_0_10_25
*123 FILLER_0_10_29
*124 FILLER_0_10_54
*125 FILLER_0_10_66
*126 FILLER_0_11_14
*127 FILLER_0_11_24
*128 FILLER_0_11_32
*129 FILLER_0_11_54
*130 FILLER_0_11_57
*131 FILLER_0_11_69
*132 FILLER_0_11_77
*133 FILLER_0_12_15
*134 FILLER_0_12_27
*135 FILLER_0_12_29
*136 FILLER_0_12_3
*137 FILLER_0_12_37
*138 FILLER_0_12_50
*139 FILLER_0_12_57
*140 FILLER_0_12_69
*141 FILLER_0_12_77
*142 FILLER_0_1_44
*143 FILLER_0_1_55
*144 FILLER_0_1_57
*145 FILLER_0_2_13
*146 FILLER_0_2_21
*147 FILLER_0_2_27
*148 FILLER_0_2_29
*149 FILLER_0_2_7
*150 FILLER_0_3_10
*151 FILLER_0_3_16
*152 FILLER_0_3_55
*153 FILLER_0_3_66
*154 FILLER_0_4_18
*155 FILLER_0_4_24
*156 FILLER_0_4_3
*157 FILLER_0_4_56
*158 FILLER_0_5_12
*159 FILLER_0_5_17
*160 FILLER_0_5_21
*161 FILLER_0_5_31
*162 FILLER_0_5_37
*163 FILLER_0_5_55
*164 FILLER_0_6_20
*165 FILLER_0_6_29
*166 FILLER_0_6_77
*167 FILLER_0_7_35
*168 FILLER_0_7_62
*169 FILLER_0_7_68
*170 FILLER_0_8_15
*171 FILLER_0_8_27
*172 FILLER_0_8_3
*173 FILLER_0_9_23
*174 FILLER_0_9_29
*175 FILLER_0_9_53
*176 FILLER_0_9_57
*177 PHY_EDGE_ROW_0_Left_13
*178 PHY_EDGE_ROW_0_Right_0
*179 PHY_EDGE_ROW_10_Left_23
*180 PHY_EDGE_ROW_10_Right_10
*181 PHY_EDGE_ROW_11_Left_24
*182 PHY_EDGE_ROW_11_Right_11
*183 PHY_EDGE_ROW_12_Left_25
*184 PHY_EDGE_ROW_12_Right_12
*185 PHY_EDGE_ROW_1_Left_14
*186 PHY_EDGE_ROW_1_Right_1
*187 PHY_EDGE_ROW_2_Left_15
*188 PHY_EDGE_ROW_2_Right_2
*189 PHY_EDGE_ROW_3_Left_16
*190 PHY_EDGE_ROW_3_Right_3
*191 PHY_EDGE_ROW_4_Left_17
*192 PHY_EDGE_ROW_4_Right_4
*193 PHY_EDGE_ROW_5_Left_18
*194 PHY_EDGE_ROW_5_Right_5
*195 PHY_EDGE_ROW_6_Left_19
*196 PHY_EDGE_ROW_6_Right_6
*197 PHY_EDGE_ROW_7_Left_20
*198 PHY_EDGE_ROW_7_Right_7
*199 PHY_EDGE_ROW_8_Left_21
*200 PHY_EDGE_ROW_8_Right_8
*201 PHY_EDGE_ROW_9_Left_22
*202 PHY_EDGE_ROW_9_Right_9
*203 TAP_TAPCELL_ROW_0_26
*204 TAP_TAPCELL_ROW_0_27
*205 TAP_TAPCELL_ROW_10_37
*206 TAP_TAPCELL_ROW_11_38
*207 TAP_TAPCELL_ROW_12_39
*208 TAP_TAPCELL_ROW_12_40
*209 TAP_TAPCELL_ROW_1_28
*210 TAP_TAPCELL_ROW_2_29
*211 TAP_TAPCELL_ROW_3_30
*212 TAP_TAPCELL_ROW_4_31
*213 TAP_TAPCELL_ROW_5_32
*214 TAP_TAPCELL_ROW_6_33
*215 TAP_TAPCELL_ROW_7_34
*216 TAP_TAPCELL_ROW_8_35
*217 TAP_TAPCELL_ROW_9_36
*218 _054_
*219 _055_
*220 _056_
*221 _057_
*222 _058_
*223 _059_
*224 _060_
*225 _061_
*226 _062_
*227 _063_
*228 _064_
*229 _065_
*230 _066_
*231 _067_
*232 _068_
*233 _069_
*234 _070_
*235 _071_
*236 _072_
*237 _073_
*238 _074_
*239 _075_
*240 _076_
*241 _077_
*242 _078_
*243 _079_
*244 _080_
*245 _081_
*246 _082_
*247 _083_
*248 _084_
*249 _085_
*250 _086_
*251 _087_
*252 _088_
*253 _089_
*254 _090_
*255 _091_
*256 _092_
*257 _093_
*258 _094_
*259 _095_
*260 _096_
*261 _097_
*262 _098_
*263 _099_
*264 _100_
*265 _101_
*266 _102_
*267 _103_
*268 _104_
*269 _105_
*270 _106_
*271 _107_
*272 _108_
*273 _109_
*274 _110_
*275 _111_
*276 _112_
*277 _113_
*278 _114_
*279 _115_
*280 clkbuf_0_clk
*281 clkbuf_1_0__f_clk
*282 clkbuf_1_1__f_clk
*283 clkload0
*284 clone11
*285 fanout21
*286 hold13
*287 hold14
*288 input1
*289 input10
*290 input11
*291 input12
*292 input2
*293 input3
*294 input4
*295 input5
*296 input6
*297 input7
*298 input8
*299 input9
*300 output13
*301 output14
*302 output15
*303 output16
*304 output17
*305 output18
*306 output19
*307 output20
*308 rebuffer1
*309 rebuffer10
*310 rebuffer2
*311 rebuffer3
*312 rebuffer4
*313 rebuffer5
*314 rebuffer6
*315 rebuffer7
*316 rebuffer8
*317 rebuffer9

*PORTS
clk I
count[0] O
count[1] O
count[2] O
count[3] O
count[4] O
count[5] O
count[6] O
count[7] O
data[0] I
data[1] I
data[2] I
data[3] I
data[4] I
data[5] I
data[6] I
data[7] I
enable I
preload I
resetn I
up_down I

*D_NET *3 0.00459973
*CONN
*P clk I
*I *280:A I *D sky130_fd_sc_hd__clkbuf_16
*CAP
1 clk 0.00189179
2 *280:A 0.00189179
3 *280:A count[2] 3.45293e-05
4 *280:A count[3] 0
5 *280:A *247:B 0.000112123
6 *280:A *289:A 3.6993e-05
7 *280:A *310:A 8.6076e-05
8 *280:A *315:A 0.000152997
9 *280:A *43:14 0
10 *280:A *54:8 0.000307354
11 *280:A *96:12 8.6076e-05
*RES
1 clk *280:A 13.0944 
*END

*D_NET *4 0.000826672
*CONN
*P count[0] O
*I *300:X O *D sky130_fd_sc_hd__buf_2
*CAP
1 count[0] 0.000361892
2 *300:X 0.000361892
3 count[0] *286:A 0.000102888
4 count[0] *300:A 0
*RES
1 *300:X count[0] 5.58983 
*END

*D_NET *5 0.00205195
*CONN
*P count[1] O
*I *301:X O *D sky130_fd_sc_hd__buf_2
*CAP
1 count[1] 0.00064487
2 *301:X 0.00064487
3 count[1] *219:A 0
4 count[1] *229:A1 0.000134516
5 count[1] *229:B2 0
6 count[1] *230:A1 0.00023635
7 count[1] *230:A2 8.73389e-06
8 count[1] *292:A 0.000288717
9 count[1] *35:45 8.31173e-05
10 count[1] *35:59 1.07797e-05
*RES
1 *301:X count[1] 20.35 
*END

*D_NET *6 0.000607504
*CONN
*P count[2] O
*I *302:X O *D sky130_fd_sc_hd__buf_2
*CAP
1 count[2] 0.000286487
2 *302:X 0.000286487
3 count[2] *87:21 0
4 *280:A count[2] 3.45293e-05
*RES
1 *302:X count[2] 6.98543 
*END

*D_NET *7 0.000755928
*CONN
*P count[3] O
*I *303:X O *D sky130_fd_sc_hd__buf_2
*CAP
1 count[3] 0.000274307
2 *303:X 0.000274307
3 count[3] *237:A 6.44676e-05
4 count[3] *289:A 3.45293e-05
5 count[3] *294:A 5.43462e-05
6 count[3] *84:12 0
7 count[3] *88:35 5.39718e-05
8 *280:A count[3] 0
*RES
1 *303:X count[3] 6.94503 
*END

*D_NET *8 0.000778569
*CONN
*P count[4] O
*I *304:X O *D sky130_fd_sc_hd__buf_2
*CAP
1 count[4] 0.000289184
2 *304:X 0.000289184
3 count[4] count[5] 0
4 count[4] *221:B 5.53249e-06
5 count[4] *296:A 7.56675e-05
6 count[4] *299:A 0.000109421
7 count[4] *35:43 0
8 count[4] *82:77 9.5799e-06
*RES
1 *304:X count[4] 5.1381 
*END

*D_NET *9 0.000483775
*CONN
*P count[5] O
*I *305:X O *D sky130_fd_sc_hd__buf_2
*CAP
1 count[5] 0.000188374
2 *305:X 0.000188374
3 count[5] *296:A 7.32103e-05
4 count[5] *305:A 3.38178e-05
5 count[4] count[5] 0
*RES
1 *305:X count[5] 5.35677 
*END

*D_NET *10 0.000970833
*CONN
*P count[6] O
*I *306:X O *D sky130_fd_sc_hd__clkbuf_4
*CAP
1 count[6] 0.000484936
2 *306:X 0.000484936
3 count[6] *297:A 0
4 count[6] *68:10 9.60582e-07
*RES
1 *306:X count[6] 11.925 
*END

*D_NET *11 0.000548643
*CONN
*P count[7] O
*I *307:X O *D sky130_fd_sc_hd__buf_2
*CAP
1 count[7] 0.000239374
2 *307:X 0.000239374
3 count[7] *268:A 0
4 count[7] *291:A 0
5 count[7] *298:A 2.85068e-05
6 count[7] *93:23 4.13879e-05
*RES
1 *307:X count[7] 5.16003 
*END

*D_NET *12 0.00283946
*CONN
*P data[0] I
*I *288:A I *D sky130_fd_sc_hd__clkbuf_1
*CAP
1 data[0] 0.000905505
2 *288:A 0.000905505
3 *288:A *219:A 0.000841623
4 *288:A *292:A 0.000114775
5 *288:A *82:20 4.60584e-05
6 *288:A *82:37 2.59981e-05
*RES
1 data[0] *288:A 22.045 
*END

*D_NET *13 0.00154974
*CONN
*P data[1] I
*I *292:A I *D sky130_fd_sc_hd__clkbuf_1
*CAP
1 data[1] 0.000565125
2 *292:A 0.000565125
3 *292:A *219:A 1.01661e-05
4 *292:A *229:A2 5.83121e-06
5 *292:A *35:59 0
6 count[1] *292:A 0.000288717
7 *288:A *292:A 0.000114775
*RES
1 data[1] *292:A 18.355 
*END

*D_NET *14 0.00105412
*CONN
*P data[2] I
*I *293:A I *D sky130_fd_sc_hd__clkbuf_1
*CAP
1 data[2] 0.000500208
2 *293:A 0.000500208
3 *293:A *235:A2 5.37074e-05
4 *293:A *35:59 0
5 *293:A *82:14 0
6 *293:A *82:20 0
*RES
1 data[2] *293:A 11.655 
*END

*D_NET *15 0.00146354
*CONN
*P data[3] I
*I *294:A I *D sky130_fd_sc_hd__clkbuf_1
*CAP
1 data[3] 0.000565432
2 *294:A 0.000565432
3 *294:A *270:A1 0.000122331
4 *294:A *270:A2 4.21973e-05
5 *294:A *270:B1 0
6 *294:A *270:B2 5.30673e-05
7 *294:A *271:B1 4.40325e-06
8 *294:A *291:A 5.63302e-05
9 *294:A *84:12 0
10 *294:A *88:35 0
11 count[3] *294:A 5.43462e-05
*RES
1 data[3] *294:A 11.062 
*END

*D_NET *16 0.00101353
*CONN
*P data[4] I
*I *295:A I *D sky130_fd_sc_hd__clkbuf_1
*CAP
1 data[4] 0.00032154
2 *295:A 0.00032154
3 *295:A *250:B1 0.000160649
4 *295:A *286:A 0
5 *295:A *299:A 7.98965e-05
6 *295:A *36:81 0
7 *295:A *82:62 0
8 *295:A *89:10 0.000129904
*RES
1 data[4] *295:A 7.90677 
*END

*D_NET *17 0.0004008
*CONN
*P data[5] I
*I *296:A I *D sky130_fd_sc_hd__clkbuf_1
*CAP
1 data[5] 0.000117716
2 *296:A 0.000117716
3 *296:A *90:12 1.64907e-05
4 count[4] *296:A 7.56675e-05
5 count[5] *296:A 7.32103e-05
*RES
1 data[5] *296:A 5.0435 
*END

*D_NET *18 0.00113146
*CONN
*P data[6] I
*I *297:A I *D sky130_fd_sc_hd__clkbuf_1
*CAP
1 data[6] 0.000541842
2 *297:A 0.000541842
3 *297:A *260:A 4.77719e-05
4 count[6] *297:A 0
*RES
1 data[6] *297:A 13.035 
*END

*D_NET *19 0.000601911
*CONN
*P data[7] I
*I *298:A I *D sky130_fd_sc_hd__clkbuf_1
*CAP
1 data[7] 0.000275457
2 *298:A 0.000275457
3 *298:A *291:A 2.24901e-05
4 *298:A *93:23 0
5 count[7] *298:A 2.85068e-05
*RES
1 data[7] *298:A 7.3443 
*END

*D_NET *20 0.00216747
*CONN
*P enable I
*I *299:A I *D sky130_fd_sc_hd__clkbuf_1
*CAP
1 enable 0.000526977
2 *299:A 0.000526977
3 *299:A *224:A2 8.53113e-06
4 *299:A *228:B1 4.66108e-05
5 *299:A *251:A2 0.000105799
6 *299:A *251:A3 2.68721e-05
7 *299:A *35:43 5.98004e-06
8 *299:A *36:81 2.28792e-05
9 *299:A *82:58 0.000294414
10 *299:A *114:8 0.000413108
11 count[4] *299:A 0.000109421
12 *295:A *299:A 7.98965e-05
*RES
1 enable *299:A 10.8629 
*END

*D_NET *21 0.000729683
*CONN
*P preload I
*I *289:A I *D sky130_fd_sc_hd__buf_2
*CAP
1 preload 0.000329081
2 *289:A 0.000329081
3 *289:A *94:10 0
4 count[3] *289:A 3.45293e-05
5 *280:A *289:A 3.6993e-05
*RES
1 preload *289:A 8.53043 
*END

*D_NET *22 0.000653298
*CONN
*P resetn I
*I *286:A I *D sky130_fd_sc_hd__dlygate4sd3_1
*CAP
1 resetn 0.000272439
2 *286:A 0.000272439
3 *286:A *224:A2 5.53249e-06
4 *286:A *82:58 0
5 count[0] *286:A 0.000102888
6 *295:A *286:A 0
*RES
1 resetn *286:A 5.1381 
*END

*D_NET *23 0.0013181
*CONN
*P up_down I
*I *291:A I *D sky130_fd_sc_hd__clkbuf_2
*CAP
1 up_down 0.000356059
2 *291:A 0.000356059
3 *291:A *270:A2 0.000208315
4 *291:A *270:B2 0.000106344
5 *291:A *84:12 0
6 *291:A *93:23 0.000212505
7 count[7] *291:A 0
8 *294:A *291:A 5.63302e-05
9 *298:A *291:A 2.24901e-05
*RES
1 up_down *291:A 9.36003 
*END

*D_NET *24 0.00078924
*CONN
*I *272:D I *D sky130_fd_sc_hd__dfrtp_1
*I *224:Y O *D sky130_fd_sc_hd__a21oi_1
*CAP
1 *272:D 0.000182557
2 *224:Y 0.000182557
3 *272:D *224:B1 4.38278e-05
4 *272:D *228:A1 0.000154481
5 *272:D *276:CLK 0.000101822
6 *272:D *32:29 3.09164e-05
7 *272:D *79:12 9.30787e-05
*RES
1 *224:Y *272:D 11.175 
*END

*D_NET *25 0.000384904
*CONN
*I *273:D I *D sky130_fd_sc_hd__dfrtp_1
*I *230:X O *D sky130_fd_sc_hd__a21o_1
*CAP
1 *273:D 0.000146494
2 *230:X 0.000146494
3 *273:D *229:A2 8.77498e-05
4 *273:D *230:A1 4.1652e-06
*RES
1 *230:X *273:D 9.375 
*END

*D_NET *26 0.000206395
*CONN
*I *274:D I *D sky130_fd_sc_hd__dfrtp_2
*I *236:X O *D sky130_fd_sc_hd__a31o_1
*CAP
1 *274:D 3.94953e-05
2 *236:X 3.94953e-05
3 *274:D *236:B1 9.14049e-05
4 *274:D *274:CLK 1.22676e-05
5 *274:D *283:A 2.37321e-05
*RES
1 *236:X *274:D 8.325 
*END

*D_NET *27 0.000280227
*CONN
*I *275:D I *D sky130_fd_sc_hd__dfrtp_1
*I *242:X O *D sky130_fd_sc_hd__a221o_1
*CAP
1 *275:D 9.74939e-05
2 *242:X 9.74939e-05
3 *275:D *242:A2 1.16578e-05
4 *275:D *242:B2 0
5 *275:D *275:CLK 7.35813e-05
*RES
1 *242:X *275:D 5.045 
*END

*D_NET *28 0.000415006
*CONN
*I *276:D I *D sky130_fd_sc_hd__dfrtp_1
*I *251:X O *D sky130_fd_sc_hd__a31o_1
*CAP
1 *276:D 0.00015637
2 *251:X 0.00015637
3 *276:D *245:A_N 0
4 *276:D *83:40 5.42473e-05
5 *276:D *89:19 4.43682e-05
6 *276:D *89:25 3.64998e-06
*RES
1 *251:X *276:D 9.975 
*END

*D_NET *29 0.000173517
*CONN
*I *277:D I *D sky130_fd_sc_hd__dfrtp_1
*I *257:X O *D sky130_fd_sc_hd__a31o_1
*CAP
1 *277:D 8.67587e-05
2 *257:X 8.67587e-05
3 *277:D *265:B1 0
4 *277:D *36:27 0
*RES
1 *257:X *277:D 8.58 
*END

*D_NET *30 0.00109848
*CONN
*I *278:D I *D sky130_fd_sc_hd__dfrtp_1
*I *266:X O *D sky130_fd_sc_hd__a31o_1
*CAP
1 *278:D 0.000366013
2 *266:X 0.000366013
3 *278:D *68:14 0.000116165
4 *278:D *70:8 6.99988e-05
5 *278:D *83:52 0.000179059
6 *278:D *83:56 1.23414e-06
*RES
1 *266:X *278:D 13.0238 
*END

*D_NET *31 0.000820206
*CONN
*I *279:D I *D sky130_fd_sc_hd__dfrtp_1
*I *271:X O *D sky130_fd_sc_hd__a21o_1
*CAP
1 *279:D 0.000293102
2 *271:X 0.000293102
3 *279:D *271:B1 3.86607e-05
4 *279:D *279:RESET_B 0.000154806
5 *279:D *84:12 4.05358e-05
*RES
1 *271:X *279:D 11.295 
*END

*D_NET *32 0.00418166
*CONN
*I *228:A1 I *D sky130_fd_sc_hd__o21a_1
*I *227:A I *D sky130_fd_sc_hd__nand2_1
*I *223:B2 I *D sky130_fd_sc_hd__a22o_1
*I *231:A2 I *D sky130_fd_sc_hd__o21a_1
*I *218:Y O *D sky130_fd_sc_hd__inv_2
*CAP
1 *228:A1 8.11167e-05
2 *227:A 9.14832e-05
3 *223:B2 0.000151216
4 *231:A2 0.000176996
5 *218:Y 8.38496e-05
6 *32:29 0.000371056
7 *32:25 0.000554388
8 *32:6 0.00060576
9 *223:B2 *223:A2 1.59999e-05
10 *223:B2 *230:A1 7.79621e-05
11 *223:B2 *230:A2 4.9968e-05
12 *223:B2 *35:43 2.92496e-05
13 *223:B2 *35:45 9.49027e-05
14 *223:B2 *82:37 1.07797e-05
15 *227:A *223:A2 9.71814e-05
16 *227:A *230:A1 6.39921e-05
17 *228:A1 *224:B1 9.54399e-05
18 *228:A1 *276:CLK 6.9779e-05
19 *228:A1 *83:24 0.000112971
20 *228:A1 *102:12 9.50342e-06
21 *231:A2 *230:A2 0
22 *231:A2 *231:A1 2.23611e-05
23 *231:A2 *281:A 0.000122325
24 *231:A2 *99:12 0.000109008
25 *32:6 *79:14 0.000124007
26 *32:25 *218:A 8.88108e-06
27 *32:25 *79:12 8.40213e-05
28 *32:25 *79:14 0.000342174
29 *32:29 *223:A2 2.86623e-05
30 *32:29 *224:B1 0.000185398
31 *32:29 *227:B 0
32 *32:29 *35:43 6.74234e-05
33 *32:29 *82:37 1.71013e-05
34 *32:29 *82:58 4.13092e-05
35 *272:D *228:A1 0.000154481
36 *272:D *32:29 3.09164e-05
*RES
1 *218:Y *32:6 2.74 
2 *32:6 *231:A2 8.915 
3 *32:6 *32:25 6.59 
4 *32:25 *32:29 5.42 
5 *32:29 *223:B2 8.15 
6 *32:29 *227:A 4.135 
7 *32:25 *228:A1 7.02 
*END

*D_NET *33 0.000699654
*CONN
*I *223:A2 I *D sky130_fd_sc_hd__a22o_1
*I *219:Y O *D sky130_fd_sc_hd__inv_2
*CAP
1 *223:A2 0.000221862
2 *219:Y 0.000221862
3 *223:A2 *219:A 1.44259e-05
4 *223:A2 *227:B 4.43871e-06
5 *223:A2 *230:A1 6.71569e-05
6 *223:A2 *82:58 2.36616e-05
7 *223:A2 *83:14 4.40325e-06
8 *223:B2 *223:A2 1.59999e-05
9 *227:A *223:A2 9.71814e-05
10 *32:29 *223:A2 2.86623e-05
*RES
1 *219:Y *223:A2 10.7025 
*END

*D_NET *34 0.000256366
*CONN
*I *239:A2 I *D sky130_fd_sc_hd__o21ai_1
*I *220:Y O *D sky130_fd_sc_hd__inv_2
*CAP
1 *239:A2 8.37428e-05
2 *220:Y 8.37428e-05
3 *239:A2 *82:14 8.88799e-05
*RES
1 *220:Y *239:A2 4.685 
*END

*D_NET *35 0.0140319
*CONN
*I *250:B1 I *D sky130_fd_sc_hd__a22o_1
*I *256:B1 I *D sky130_fd_sc_hd__a22o_1
*I *223:B1 I *D sky130_fd_sc_hd__a22o_1
*I *229:B1 I *D sky130_fd_sc_hd__a22o_1
*I *235:B1 I *D sky130_fd_sc_hd__a22o_1
*I *242:B1 I *D sky130_fd_sc_hd__a221o_1
*I *270:B1 I *D sky130_fd_sc_hd__a22o_1
*I *265:B1 I *D sky130_fd_sc_hd__a22o_1
*I *221:Y O *D sky130_fd_sc_hd__nor2_2
*CAP
1 *250:B1 0.000251449
2 *256:B1 5.96732e-05
3 *223:B1 0
4 *229:B1 0
5 *235:B1 0
6 *242:B1 2.08101e-05
7 *270:B1 0.000164023
8 *265:B1 0.000469221
9 *221:Y 0
10 *35:69 0.00101635
11 *35:59 0.00143537
12 *35:45 0.000695179
13 *35:43 0.000706841
14 *35:10 0.0012016
15 *35:8 0.000241753
16 *35:4 0.000316666
17 *242:B1 *275:CLK 0
18 *250:B1 *221:B 1.34503e-05
19 *250:B1 *250:A2 9.06438e-05
20 *250:B1 *82:62 7.23943e-06
21 *250:B1 *82:77 0.000123849
22 *250:B1 *82:86 2.97561e-05
23 *256:B1 *36:10 0
24 *256:B1 *82:86 0.000116165
25 *265:B1 *248:B 2.11084e-05
26 *265:B1 *257:A2 0.000312176
27 *265:B1 *258:A_N 0.000126808
28 *265:B1 *265:A1 0.00019637
29 *265:B1 *265:B2 4.66108e-05
30 *265:B1 *304:A 0.000194694
31 *265:B1 *36:27 8.69098e-05
32 *265:B1 *83:40 0
33 *265:B1 *105:12 7.17811e-05
34 *270:B1 *242:B2 2.07186e-05
35 *270:B1 *84:12 4.94404e-05
36 *35:8 *221:B 4.21973e-05
37 *35:10 *221:B 6.52265e-05
38 *35:10 *304:A 0.000114024
39 *35:43 *221:B 9.3062e-06
40 *35:43 *228:B1 0.000215535
41 *35:43 *230:A2 0.00026828
42 *35:43 *245:A_N 0
43 *35:43 *251:A2 0.000269316
44 *35:43 *251:A3 0.00011852
45 *35:43 *276:CLK 0.0002913
46 *35:43 *281:A 0
47 *35:43 *36:10 0.000273695
48 *35:43 *79:12 9.30787e-05
49 *35:43 *82:37 8.53113e-06
50 *35:43 *82:58 0.000163076
51 *35:43 *82:77 0
52 *35:43 *83:24 9.37731e-05
53 *35:43 *83:40 0.000307368
54 *35:45 *230:A1 9.6174e-05
55 *35:45 *230:A2 0.000353049
56 *35:59 *229:A1 0.000134516
57 *35:59 *82:20 0.00125639
58 *35:59 *82:37 3.66286e-05
59 *35:69 *235:B2 0.0001249
60 *35:69 *236:A1 1.32017e-05
61 *35:69 *236:A3 0.000149067
62 *35:69 *239:A1 0.000162325
63 *35:69 *239:B1 7.26629e-05
64 *35:69 *240:A1 0.000117832
65 *35:69 *241:A2 2.68721e-05
66 *35:69 *242:A2 3.05295e-05
67 *35:69 *270:A1 3.09164e-05
68 *35:69 *36:42 7.55136e-05
69 *35:69 *50:10 7.26629e-05
70 *35:69 *82:14 0
71 *35:69 *82:132 0.000406697
72 *35:69 *87:21 0
73 *35:69 *87:32 0
74 *35:69 *94:10 0
75 count[1] *35:45 8.31173e-05
76 count[1] *35:59 1.07797e-05
77 count[4] *35:43 0
78 *223:B2 *35:43 2.92496e-05
79 *223:B2 *35:45 9.49027e-05
80 *277:D *265:B1 0
81 *292:A *35:59 0
82 *293:A *35:59 0
83 *294:A *270:B1 0
84 *295:A *250:B1 0.000160649
85 *299:A *35:43 5.98004e-06
86 *32:29 *35:43 6.74234e-05
*RES
1 *221:Y *35:4 1.6 
2 *35:4 *35:8 1.155 
3 *35:8 *35:10 2.175 
4 *35:10 *265:B1 16.445 
5 *35:10 *35:43 25.985 
6 *35:43 *35:45 3.9 
7 *35:45 *35:59 22.58 
8 *35:59 *35:69 22.03 
9 *35:69 *270:B1 7.865 
10 *35:69 *242:B1 1.96 
11 *35:59 *235:B1 1.6 
12 *35:45 *229:B1 1.6 
13 *35:43 *223:B1 1.6 
14 *35:8 *256:B1 6.98 
15 *35:4 *250:B1 10.745 
*END

*D_NET *36 0.0103011
*CONN
*I *251:A1 I *D sky130_fd_sc_hd__a31o_1
*I *228:B1 I *D sky130_fd_sc_hd__o21a_1
*I *224:A2 I *D sky130_fd_sc_hd__a21oi_1
*I *271:A1 I *D sky130_fd_sc_hd__a21o_1
*I *240:B1 I *D sky130_fd_sc_hd__o21ai_1
*I *236:A1 I *D sky130_fd_sc_hd__a31o_1
*I *266:A1 I *D sky130_fd_sc_hd__a31o_1
*I *257:A1 I *D sky130_fd_sc_hd__a31o_1
*I *222:X O *D sky130_fd_sc_hd__and2b_2
*CAP
1 *251:A1 2.76856e-05
2 *228:B1 0.000229752
3 *224:A2 8.62358e-05
4 *271:A1 0
5 *240:B1 1.17375e-05
6 *236:A1 0.000230016
7 *266:A1 0
8 *257:A1 0
9 *222:X 0
10 *36:81 0.000510663
11 *36:75 0.000349032
12 *36:42 0.000680376
13 *36:38 0.0010725
14 *36:27 0.0012243
15 *36:10 0.000842476
16 *36:4 0.000378727
17 *224:A2 *224:A1 0.000118527
18 *224:A2 *287:A 0
19 *224:A2 *82:58 0.000114838
20 *228:B1 *227:B 1.4389e-05
21 *228:B1 *317:A 9.61303e-05
22 *236:A1 *236:A3 0.000216602
23 *236:A1 *236:B1 7.00889e-06
24 *236:A1 *239:B1 0.000139245
25 *236:A1 *243:A1 9.42302e-05
26 *236:A1 *50:10 0.000116165
27 *236:A1 *82:14 5.57909e-05
28 *236:A1 *87:45 8.40439e-05
29 *240:B1 *239:A1 4.82919e-05
30 *240:B1 *84:21 2.75229e-05
31 *251:A1 *251:B1 4.66108e-05
32 *251:A1 *82:58 1.19928e-05
33 *251:A1 *89:19 8.23457e-05
34 *36:10 *257:A2 0.00011852
35 *36:10 *82:86 0
36 *36:10 *83:40 0.000276727
37 *36:27 *265:A1 0.00015765
38 *36:27 *265:B2 4.66108e-05
39 *36:27 *266:A2 0.000127482
40 *36:27 *266:B1 7.84466e-05
41 *36:27 *277:RESET_B 0.000187766
42 *36:27 *305:A 0
43 *36:27 *82:86 0
44 *36:27 *83:40 2.15594e-05
45 *36:38 *266:A2 3.11409e-05
46 *36:38 *266:A3 0.000122801
47 *36:38 *266:B1 9.13949e-06
48 *36:38 *308:A 0.000123955
49 *36:38 *70:12 0.000122797
50 *36:42 *241:A2 0.000159964
51 *36:42 *241:B1 9.47454e-05
52 *36:42 *242:A2 0.000118527
53 *36:42 *243:A1 4.43871e-06
54 *36:42 *271:A2 9.50342e-06
55 *36:42 *271:B1 0.00016506
56 *36:42 *275:CLK 0
57 *36:42 *279:RESET_B 0.000118197
58 *36:42 *50:10 2.30797e-05
59 *36:42 *84:12 0
60 *36:75 *82:62 5.75152e-05
61 *36:75 *114:8 0.000103619
62 *36:81 *82:62 3.9442e-05
63 *36:81 *89:10 0
64 *36:81 *114:8 0.000316799
65 *256:B1 *36:10 0
66 *265:B1 *36:27 8.69098e-05
67 *277:D *36:27 0
68 *286:A *224:A2 5.53249e-06
69 *295:A *36:81 0
70 *299:A *224:A2 8.53113e-06
71 *299:A *228:B1 4.66108e-05
72 *299:A *36:81 2.28792e-05
73 *35:43 *228:B1 0.000215535
74 *35:43 *36:10 0.000273695
75 *35:69 *236:A1 1.32017e-05
76 *35:69 *36:42 7.55136e-05
*RES
1 *222:X *36:4 1.6 
2 *36:4 *36:10 7.835 
3 *36:10 *257:A1 3.6 
4 *36:10 *36:27 14.255 
5 *36:27 *266:A1 1.6 
6 *36:27 *36:38 10.83 
7 *36:38 *36:42 12.305 
8 *36:42 *236:A1 10.125 
9 *36:42 *240:B1 4.05 
10 *36:38 *271:A1 1.6 
11 *36:4 *36:75 4.175 
12 *36:75 *36:81 4.74 
13 *36:81 *224:A2 6 
14 *36:81 *228:B1 7.98 
15 *36:75 *251:A1 4.395 
*END

*D_NET *37 0.000892908
*CONN
*I *224:B1 I *D sky130_fd_sc_hd__a21oi_1
*I *223:X O *D sky130_fd_sc_hd__a22o_1
*CAP
1 *224:B1 0.000147621
2 *223:X 0.000147621
3 *224:B1 *83:14 0.000163985
4 *224:B1 *83:24 0.000109016
5 *228:A1 *224:B1 9.54399e-05
6 *272:D *224:B1 4.38278e-05
7 *32:29 *224:B1 0.000185398
*RES
1 *223:X *224:B1 11.505 
*END

*D_NET *38 0.00129027
*CONN
*I *231:B1 I *D sky130_fd_sc_hd__o21a_1
*I *225:Y O *D sky130_fd_sc_hd__nand2b_1
*CAP
1 *231:B1 0.000356209
2 *225:Y 0.000356209
3 *231:B1 *309:A 0.000109883
4 *231:B1 *86:23 7.97845e-05
5 *231:B1 *94:25 0.00038818
*RES
1 *225:Y *231:B1 13.68 
*END

*D_NET *39 0.00113695
*CONN
*I *316:A I *D sky130_fd_sc_hd__dlygate4sd1_1
*I *231:A1 I *D sky130_fd_sc_hd__o21a_1
*I *226:X O *D sky130_fd_sc_hd__xor2_2
*CAP
1 *316:A 8.57515e-05
2 *231:A1 0.000133131
3 *226:X 3.61853e-05
4 *39:8 0.000255067
5 *231:A1 *245:B 4.39656e-05
6 *231:A1 *281:A 4.99619e-05
7 *231:A1 *309:A 5.4003e-05
8 *231:A1 *99:12 0.000115326
9 *316:A *245:B 7.34442e-05
10 *316:A *247:A 8.23457e-05
11 *316:A *249:A 3.09164e-05
12 *316:A *309:A 0.000154488
13 *231:A2 *231:A1 2.23611e-05
*RES
1 *226:X *39:8 4.05 
2 *39:8 *231:A1 6.795 
3 *39:8 *316:A 6.285 
*END

*D_NET *40 0.00201517
*CONN
*I *230:A1 I *D sky130_fd_sc_hd__a21o_1
*I *227:Y O *D sky130_fd_sc_hd__nand2_1
*CAP
1 *230:A1 0.000554537
2 *227:Y 0.000554537
3 *230:A1 *229:A2 0.000159156
4 *230:A1 *230:A2 2.19562e-06
5 *230:A1 *82:58 0.000198945
6 count[1] *230:A1 0.00023635
7 *223:A2 *230:A1 6.71569e-05
8 *223:B2 *230:A1 7.79621e-05
9 *227:A *230:A1 6.39921e-05
10 *273:D *230:A1 4.1652e-06
11 *35:45 *230:A1 9.6174e-05
*RES
1 *227:Y *230:A1 16.83 
*END

*D_NET *41 0.00221436
*CONN
*I *230:A2 I *D sky130_fd_sc_hd__a21o_1
*I *228:X O *D sky130_fd_sc_hd__o21a_1
*CAP
1 *230:A2 0.000691221
2 *228:X 0.000691221
3 *230:A2 *229:A2 6.96025e-05
4 *230:A2 *230:B1 8.00895e-05
5 *230:A2 *281:A 0
6 *230:A2 *301:A 0
7 count[1] *230:A2 8.73389e-06
8 *223:B2 *230:A2 4.9968e-05
9 *230:A1 *230:A2 2.19562e-06
10 *231:A2 *230:A2 0
11 *35:43 *230:A2 0.00026828
12 *35:45 *230:A2 0.000353049
*RES
1 *228:X *230:A2 19.08 
*END

*D_NET *42 0.000370444
*CONN
*I *230:B1 I *D sky130_fd_sc_hd__a21o_1
*I *229:X O *D sky130_fd_sc_hd__a22o_1
*CAP
1 *230:B1 0.000122325
2 *229:X 0.000122325
3 *230:B1 *229:A2 4.57056e-05
4 *230:A2 *230:B1 8.00895e-05
*RES
1 *229:X *230:B1 5.405 
*END

*D_NET *43 0.00282702
*CONN
*I *244:A3 I *D sky130_fd_sc_hd__o31ai_4
*I *233:A I *D sky130_fd_sc_hd__nand2_1
*I *234:A I *D sky130_fd_sc_hd__or2_1
*I *231:X O *D sky130_fd_sc_hd__o21a_1
*CAP
1 *244:A3 0.000128451
2 *233:A 1.8252e-05
3 *234:A 5.59851e-05
4 *231:X 0.000457999
5 *43:20 0.000415053
6 *43:14 0.000927265
7 *233:A *234:B 9.03508e-06
8 *233:A *44:17 4.87465e-06
9 *234:A *44:6 5.30673e-05
10 *234:A *44:17 3.00381e-05
11 *244:A3 *225:B 0
12 *244:A3 *244:A1 5.18317e-06
13 *244:A3 *247:B 0.000122801
14 *244:A3 *57:18 7.55762e-05
15 *43:14 *225:B 0
16 *43:14 *83:78 0
17 *43:14 *86:23 7.44023e-05
18 *43:14 *99:12 8.65905e-05
19 *43:20 *283:A 0.000308724
20 *43:20 *44:17 9.80032e-06
21 *43:20 *94:25 4.39228e-05
22 *280:A *43:14 0
*RES
1 *231:X *43:14 9.51 
2 *43:14 *43:20 6.605 
3 *43:20 *234:A 2.74 
4 *43:20 *233:A 1.96 
5 *43:14 *244:A3 6.12 
*END

*D_NET *44 0.00229413
*CONN
*I *233:B I *D sky130_fd_sc_hd__nand2_1
*I *244:A2 I *D sky130_fd_sc_hd__o31ai_4
*I *234:B I *D sky130_fd_sc_hd__or2_1
*I *232:X O *D sky130_fd_sc_hd__xor2_1
*CAP
1 *233:B 0
2 *244:A2 0.000213861
3 *234:B 1.47259e-05
4 *232:X 9.58689e-05
5 *44:17 0.00024429
6 *44:6 0.000141024
7 *244:A2 *247:A 2.20732e-05
8 *244:A2 *247:B 0.000139625
9 *244:A2 *283:A 2.8531e-05
10 *244:A2 *57:18 0.000274245
11 *244:A2 *82:14 0
12 *244:A2 *83:78 6.99198e-05
13 *44:6 *87:45 0.000310394
14 *44:6 *94:16 0.000461047
15 *44:17 *225:A_N 2.22989e-05
16 *44:17 *283:A 2.75229e-05
17 *44:17 *94:16 0.000121883
18 *233:A *234:B 9.03508e-06
19 *233:A *44:17 4.87465e-06
20 *234:A *44:6 5.30673e-05
21 *234:A *44:17 3.00381e-05
22 *43:20 *44:17 9.80032e-06
*RES
1 *232:X *44:6 5.845 
2 *44:6 *234:B 1.96 
3 *44:6 *44:17 1.5 
4 *44:17 *244:A2 10.805 
5 *44:17 *233:B 1.6 
*END

*D_NET *45 0.000752854
*CONN
*I *236:A2 I *D sky130_fd_sc_hd__a31o_1
*I *233:Y O *D sky130_fd_sc_hd__nand2_1
*CAP
1 *236:A2 0.000216646
2 *233:Y 0.000216646
3 *236:A2 *236:A3 2.75145e-05
4 *236:A2 *236:B1 1.19928e-05
5 *236:A2 *283:A 0
6 *236:A2 *82:14 0.000118527
7 *236:A2 *94:16 0.000161529
*RES
1 *233:Y *236:A2 10.86 
*END

*D_NET *46 0.00150169
*CONN
*I *239:B1 I *D sky130_fd_sc_hd__o21ai_1
*I *236:A3 I *D sky130_fd_sc_hd__a31o_1
*I *234:X O *D sky130_fd_sc_hd__or2_1
*CAP
1 *239:B1 4.18477e-05
2 *236:A3 0.000172273
3 *234:X 9.48369e-05
4 *46:8 0.000308958
5 *236:A3 *236:B1 0.000211491
6 *236:A3 *82:14 0
7 *46:8 *87:45 6.71882e-05
8 *236:A1 *236:A3 0.000216602
9 *236:A1 *239:B1 0.000139245
10 *236:A2 *236:A3 2.75145e-05
11 *35:69 *236:A3 0.000149067
12 *35:69 *239:B1 7.26629e-05
*RES
1 *234:X *46:8 4.74 
2 *46:8 *236:A3 8.61 
3 *46:8 *239:B1 5.235 
*END

*D_NET *47 0.00142338
*CONN
*I *236:B1 I *D sky130_fd_sc_hd__a31o_1
*I *235:X O *D sky130_fd_sc_hd__a22o_1
*CAP
1 *236:B1 0.000407133
2 *235:X 0.000407133
3 *236:B1 *235:A2 3.72916e-05
4 *236:B1 *274:CLK 0
5 *236:B1 *82:14 0.000249921
6 *236:A1 *236:B1 7.00889e-06
7 *236:A2 *236:B1 1.19928e-05
8 *236:A3 *236:B1 0.000211491
9 *274:D *236:B1 9.14049e-05
*RES
1 *235:X *236:B1 14.49 
*END

*D_NET *48 0.00158429
*CONN
*I *238:A I *D sky130_fd_sc_hd__inv_2
*I *241:A1 I *D sky130_fd_sc_hd__a21oi_1
*I *240:A1 I *D sky130_fd_sc_hd__o21ai_1
*I *237:Y O *D sky130_fd_sc_hd__xnor2_2
*CAP
1 *238:A 0.000278982
2 *241:A1 0
3 *240:A1 0.000104963
4 *237:Y 0
5 *48:21 0.000383408
6 *48:4 0.000209389
7 *238:A *241:A2 4.99619e-05
8 *238:A *88:25 0.000223907
9 *240:A1 *241:A2 0.000131646
10 *240:A1 *50:10 9.50342e-06
11 *240:A1 *88:25 1.19928e-05
12 *48:21 *241:A2 6.27029e-05
13 *35:69 *240:A1 0.000117832
*RES
1 *237:Y *48:4 1.6 
2 *48:4 *240:A1 7.775 
3 *48:4 *48:21 1.5 
4 *48:21 *241:A1 1.6 
5 *48:21 *238:A 6.55 
*END

*D_NET *49 0.00057791
*CONN
*I *244:A1 I *D sky130_fd_sc_hd__o31ai_4
*I *238:Y O *D sky130_fd_sc_hd__inv_2
*CAP
1 *244:A1 0.000182769
2 *238:Y 0.000182769
3 *244:A1 *225:B 7.09921e-05
4 *244:A1 *243:A2 4.40899e-05
5 *244:A1 *83:78 0
6 *244:A1 *84:42 9.21064e-05
7 *244:A3 *244:A1 5.18317e-06
*RES
1 *238:Y *244:A1 10.875 
*END

*D_NET *50 0.00123068
*CONN
*I *241:A2 I *D sky130_fd_sc_hd__a21oi_1
*I *240:A2 I *D sky130_fd_sc_hd__o21ai_1
*I *239:Y O *D sky130_fd_sc_hd__o21ai_1
*CAP
1 *241:A2 9.01527e-05
2 *240:A2 0
3 *239:Y 7.44599e-05
4 *50:10 0.000164613
5 *241:A2 *88:25 0.000198939
6 *50:10 *82:14 4.99619e-05
7 *236:A1 *50:10 0.000116165
8 *238:A *241:A2 4.99619e-05
9 *240:A1 *241:A2 0.000131646
10 *240:A1 *50:10 9.50342e-06
11 *35:69 *241:A2 2.68721e-05
12 *35:69 *50:10 7.26629e-05
13 *36:42 *241:A2 0.000159964
14 *36:42 *50:10 2.30797e-05
15 *48:21 *241:A2 6.27029e-05
*RES
1 *239:Y *50:10 5.685 
2 *50:10 *240:A2 3.6 
3 *50:10 *241:A2 7.32 
*END

*D_NET *51 0.000198718
*CONN
*I *241:B1 I *D sky130_fd_sc_hd__a21oi_1
*I *240:Y O *D sky130_fd_sc_hd__o21ai_1
*CAP
1 *241:B1 5.19862e-05
2 *240:Y 5.19862e-05
3 *241:B1 *83:78 0
4 *36:42 *241:B1 9.47454e-05
*RES
1 *240:Y *241:B1 8.325 
*END

*D_NET *52 0.00106854
*CONN
*I *242:C1 I *D sky130_fd_sc_hd__a221o_1
*I *241:Y O *D sky130_fd_sc_hd__a21oi_1
*CAP
1 *242:C1 0.000228884
2 *241:Y 0.000228884
3 *242:C1 *84:12 8.97642e-05
4 *242:C1 *88:25 0.00027042
5 *242:C1 *88:35 0.000250582
*RES
1 *241:Y *242:C1 12.3 
*END

*D_NET *53 0.00165289
*CONN
*I *244:B1 I *D sky130_fd_sc_hd__o31ai_4
*I *243:Y O *D sky130_fd_sc_hd__o21bai_1
*CAP
1 *244:B1 0.000194283
2 *243:Y 0.000194283
3 *244:B1 *225:B 3.39151e-05
4 *244:B1 *247:A 0.000605693
5 *244:B1 *247:B 0.000422245
6 *244:B1 *249:B 3.50152e-06
7 *244:B1 *57:18 0.000104221
8 *244:B1 *83:78 9.47454e-05
*RES
1 *243:Y *244:B1 14.565 
*END

*D_NET *54 0.00168488
*CONN
*I *262:A1 I *D sky130_fd_sc_hd__a31o_1
*I *310:A I *D sky130_fd_sc_hd__clkbuf_1
*I *244:Y O *D sky130_fd_sc_hd__o31ai_4
*CAP
1 *262:A1 0.000191973
2 *310:A 6.03594e-05
3 *244:Y 0.000146076
4 *54:8 0.000398409
5 *262:A1 *254:A 1.31297e-05
6 *262:A1 *262:A2 2.86975e-05
7 *310:A *84:42 0.000236918
8 *310:A *96:12 4.11611e-05
9 *54:8 *315:A 0.000174729
10 *280:A *310:A 8.6076e-05
11 *280:A *54:8 0.000307354
*RES
1 *244:Y *54:8 7.53 
2 *54:8 *310:A 5.775 
3 *54:8 *262:A1 6.645 
*END

*D_NET *55 0.00343066
*CONN
*I *253:B1 I *D sky130_fd_sc_hd__a21o_1
*I *247:A I *D sky130_fd_sc_hd__nor2_1
*I *245:X O *D sky130_fd_sc_hd__and2b_1
*CAP
1 *253:B1 8.3844e-05
2 *247:A 0.000698175