*SPEF "ieee 1481-1999"
*DESIGN "counter"
*DATE "12:45:43 Wednesday December 04, 2024"
*VENDOR "The OpenROAD Project"
*PROGRAM "OpenROAD"
*VERSION "b16bda7e82721d10566ff7e2b68f1ff0be9f9e38"
*DESIGN_FLOW "NAME_SCOPE LOCAL" "PIN_CAP NONE"
*DIVIDER /
*DELIMITER :
*BUS_DELIMITER []
*T_UNIT 1 NS
*C_UNIT 1 PF
*R_UNIT 1 OHM
*L_UNIT 1 HENRY

*NAME_MAP
*3 clk
*4 count[0]
*5 count[1]
*6 count[2]
*7 count[3]
*8 count[4]
*9 count[5]
*10 count[6]
*11 count[7]
*12 data[0]
*13 data[1]
*14 data[2]
*15 data[3]
*16 data[4]
*17 data[5]
*18 data[6]
*19 data[7]
*20 enable
*21 preload
*22 resetn
*23 up_down
*24 _000_
*25 _001_
*26 _002_
*27 _003_
*28 _004_
*29 _005_
*30 _006_
*31 _007_
*32 _008_
*33 _009_
*34 _010_
*35 _011_
*36 _012_
*37 _013_
*38 _014_
*39 _015_
*40 _016_
*41 _017_
*42 _018_
*43 _019_
*44 _020_
*45 _021_
*46 _022_
*47 _023_
*48 _024_
*49 _025_
*50 _026_
*51 _027_
*52 _028_
*53 _029_
*54 _030_
*55 _031_
*56 _032_
*57 _033_
*58 _034_
*59 _035_
*60 _036_
*61 _037_
*62 _038_
*63 _039_
*64 _040_
*65 _041_
*66 _042_
*67 _043_
*68 _044_
*69 _045_
*70 _046_
*71 _047_
*72 _048_
*73 _049_
*74 _050_
*75 _051_
*76 _052_
*77 _053_
*78 clknet_0_clk
*79 clknet_1_0__leaf_clk
*80 clknet_1_1__leaf_clk
*81 net1
*82 net10
*83 net11
*84 net12
*85 net13
*86 net14
*87 net15
*88 net16
*89 net17
*90 net18
*91 net19
*92 net2
*93 net20
*94 net21
*95 net22
*96 net23
*97 net24
*98 net3
*99 net4
*100 net5
*101 net6
*102 net7
*103 net8
*104 net9
*105 FILLER_0_0_15
*106 FILLER_0_0_27
*107 FILLER_0_0_29
*108 FILLER_0_0_3
*109 FILLER_0_0_54
*110 FILLER_0_0_67
*111 FILLER_0_10_18
*112 FILLER_0_10_26
*113 FILLER_0_10_29
*114 FILLER_0_10_35
*115 FILLER_0_10_54
*116 FILLER_0_10_6
*117 FILLER_0_10_66
*118 FILLER_0_11_15
*119 FILLER_0_11_24
*120 FILLER_0_11_32
*121 FILLER_0_11_46
*122 FILLER_0_11_54
*123 FILLER_0_11_57
*124 FILLER_0_11_69
*125 FILLER_0_11_7
*126 FILLER_0_11_77
*127 FILLER_0_12_15
*128 FILLER_0_12_27
*129 FILLER_0_12_29
*130 FILLER_0_12_3
*131 FILLER_0_12_35
*132 FILLER_0_12_54
*133 FILLER_0_12_57
*134 FILLER_0_12_69
*135 FILLER_0_12_77
*136 FILLER_0_1_51
*137 FILLER_0_1_57
*138 FILLER_0_2_22
*139 FILLER_0_2_29
*140 FILLER_0_2_41
*141 FILLER_0_2_7
*142 FILLER_0_2_77
*143 FILLER_0_3_13
*144 FILLER_0_3_25
*145 FILLER_0_3_49
*146 FILLER_0_3_55
*147 FILLER_0_3_57
*148 FILLER_0_4_49
*149 FILLER_0_4_74
*150 FILLER_0_4_9
*151 FILLER_0_5_10
*152 FILLER_0_5_21
*153 FILLER_0_5_26
*154 FILLER_0_5_38
*155 FILLER_0_5_54
*156 FILLER_0_5_57
*157 FILLER_0_6_29
*158 FILLER_0_6_3
*159 FILLER_0_6_64
*160 FILLER_0_7_36
*161 FILLER_0_7_44
*162 FILLER_0_7_53
*163 FILLER_0_7_62
*164 FILLER_0_7_7
*165 FILLER_0_8_23
*166 FILLER_0_8_27
*167 FILLER_0_8_29
*168 FILLER_0_8_41
*169 FILLER_0_8_50
*170 FILLER_0_9_14
*171 FILLER_0_9_49
*172 FILLER_0_9_55
*173 FILLER_0_9_57
*174 FILLER_0_9_6
*175 PHY_EDGE_ROW_0_Left_13
*176 PHY_EDGE_ROW_0_Right_0
*177 PHY_EDGE_ROW_10_Left_23
*178 PHY_EDGE_ROW_10_Right_10
*179 PHY_EDGE_ROW_11_Left_24
*180 PHY_EDGE_ROW_11_Right_11
*181 PHY_EDGE_ROW_12_Left_25
*182 PHY_EDGE_ROW_12_Right_12
*183 PHY_EDGE_ROW_1_Left_14
*184 PHY_EDGE_ROW_1_Right_1
*185 PHY_EDGE_ROW_2_Left_15
*186 PHY_EDGE_ROW_2_Right_2
*187 PHY_EDGE_ROW_3_Left_16
*188 PHY_EDGE_ROW_3_Right_3
*189 PHY_EDGE_ROW_4_Left_17
*190 PHY_EDGE_ROW_4_Right_4
*191 PHY_EDGE_ROW_5_Left_18
*192 PHY_EDGE_ROW_5_Right_5
*193 PHY_EDGE_ROW_6_Left_19
*194 PHY_EDGE_ROW_6_Right_6
*195 PHY_EDGE_ROW_7_Left_20
*196 PHY_EDGE_ROW_7_Right_7
*197 PHY_EDGE_ROW_8_Left_21
*198 PHY_EDGE_ROW_8_Right_8
*199 PHY_EDGE_ROW_9_Left_22
*200 PHY_EDGE_ROW_9_Right_9
*201 TAP_TAPCELL_ROW_0_26
*202 TAP_TAPCELL_ROW_0_27
*203 TAP_TAPCELL_ROW_10_37
*204 TAP_TAPCELL_ROW_11_38
*205 TAP_TAPCELL_ROW_12_39
*206 TAP_TAPCELL_ROW_12_40
*207 TAP_TAPCELL_ROW_1_28
*208 TAP_TAPCELL_ROW_2_29
*209 TAP_TAPCELL_ROW_3_30
*210 TAP_TAPCELL_ROW_4_31
*211 TAP_TAPCELL_ROW_5_32
*212 TAP_TAPCELL_ROW_6_33
*213 TAP_TAPCELL_ROW_7_34
*214 TAP_TAPCELL_ROW_8_35
*215 TAP_TAPCELL_ROW_9_36
*216 _054_
*217 _055_
*218 _056_
*219 _057_
*220 _058_
*221 _059_
*222 _060_
*223 _061_
*224 _062_
*225 _063_
*226 _064_
*227 _065_
*228 _066_
*229 _067_
*230 _068_
*231 _069_
*232 _070_
*233 _071_
*234 _072_
*235 _073_
*236 _074_
*237 _075_
*238 _076_
*239 _077_
*240 _078_
*241 _079_
*242 _080_
*243 _081_
*244 _082_
*245 _083_
*246 _084_
*247 _085_
*248 _086_
*249 _087_
*250 _088_
*251 _089_
*252 _090_
*253 _091_
*254 _092_
*255 _093_
*256 _094_
*257 _095_
*258 _096_
*259 _097_
*260 _098_
*261 _099_
*262 _100_
*263 _101_
*264 _102_
*265 _103_
*266 _104_
*267 _105_
*268 _106_
*269 _107_
*270 _108_
*271 _109_
*272 _110_
*273 _111_
*274 _112_
*275 _113_
*276 _114_
*277 _115_
*278 clkbuf_0_clk
*279 clkbuf_1_0__f_clk
*280 clkbuf_1_1__f_clk
*281 clkload0
*282 fanout21
*283 hold2
*284 hold3
*285 input1
*286 input10
*287 input11
*288 input12
*289 input2
*290 input3
*291 input4
*292 input5
*293 input6
*294 input7
*295 input8
*296 input9
*297 output13
*298 output14
*299 output15
*300 output16
*301 output17
*302 output18
*303 output19
*304 output20
*305 rebuffer1

*PORTS
clk I
count[0] O
count[1] O
count[2] O
count[3] O
count[4] O
count[5] O
count[6] O
count[7] O
data[0] I
data[1] I
data[2] I
data[3] I
data[4] I
data[5] I
data[6] I
data[7] I
enable I
preload I
resetn I
up_down I

*D_NET *3 0.00360487
*CONN
*P clk I
*I *278:A I *D sky130_fd_sc_hd__clkbuf_16
*CAP
1 clk 0.00162635
2 *278:A 0
3 *3:11 0.00162635
4 *3:11 count[2] 1.5289e-05
5 *3:11 count[3] 0
6 *3:11 *224:B 0
7 *3:11 *272:RESET_B 0
8 *3:11 *6:14 1.59585e-05
9 *3:11 *15:11 0
10 *3:11 *21:17 7.1481e-05
11 *3:11 *36:63 0
12 *3:11 *44:34 0.00017391
13 *3:11 *49:10 7.55388e-05
14 *3:11 *94:64 0
15 *3:11 *94:79 0
*RES
1 clk *3:11 33.8782 
2 *3:11 *278:A 23 
*END

*D_NET *4 0.000934788
*CONN
*P count[0] O
*I *297:X O *D sky130_fd_sc_hd__buf_2
*CAP
1 count[0] 0.000353742
2 *297:X 0.000353742
3 count[0] *22:13 5.60991e-05
4 count[0] *83:94 0.000102902
5 count[0] *85:23 3.59619e-05
6 count[0] *96:10 3.23422e-05
*RES
1 *297:X count[0] 48.1267 
*END

*D_NET *5 0.00190504
*CONN
*P count[1] O
*I *298:X O *D sky130_fd_sc_hd__buf_2
*CAP
1 count[1] 0.000451161
2 *298:X 0.000238038
3 *5:8 0.000689199
4 count[1] *13:17 0
5 *5:8 *13:17 0.000158584
6 *5:8 *25:10 5.79559e-05
7 *5:8 *35:36 8.48312e-05
8 *5:8 *92:10 0.000225274
*RES
1 *298:X *5:8 43.8621 
2 *5:8 count[1] 9.40429 
*END

*D_NET *6 0.000676914
*CONN
*P count[2] O
*I *299:X O *D sky130_fd_sc_hd__buf_2
*CAP
1 count[2] 8.68308e-05
2 *299:X 0.000236002
3 *6:14 0.000322833
4 *3:11 count[2] 1.5289e-05
5 *3:11 *6:14 1.59585e-05
*RES
1 *299:X *6:14 49.9 
2 *6:14 count[2] 0.382667 
*END

*D_NET *7 0.000879419
*CONN
*P count[3] O
*I *300:X O *D sky130_fd_sc_hd__buf_2
*CAP
1 count[3] 0.000300888
2 *300:X 0.000300888
3 count[3] *15:11 7.92657e-05
4 count[3] *21:17 6.91028e-05
5 count[3] *48:12 2.26497e-05
6 count[3] *88:18 0.000106626
7 *3:11 count[3] 0
*RES
1 *300:X count[3] 49.9819 
*END

*D_NET *8 0.000499939
*CONN
*P count[4] O
*I *301:X O *D sky130_fd_sc_hd__buf_2
*CAP
1 count[4] 0.000170311
2 *301:X 0.000170311
3 count[4] count[5] 0
4 count[4] *292:A 0
5 count[4] *293:A 7.1481e-05
6 count[4] *296:A 6.2493e-05
7 count[4] *83:34 2.5343e-05
*RES
1 *301:X count[4] 47.0789 
*END

*D_NET *9 0.000576184
*CONN
*P count[5] O
*I *302:X O *D sky130_fd_sc_hd__buf_2
*CAP
1 count[5] 0.000235918
2 *302:X 0.000235918
3 count[5] *293:A 6.91091e-05
4 count[5] *302:A 3.52397e-05
5 count[4] count[5] 0
*RES
1 *302:X count[5] 47.7832 
*END

*D_NET *10 0.00101283
*CONN
*P count[6] O
*I *303:X O *D sky130_fd_sc_hd__clkbuf_4
*CAP
1 count[6] 0.000506416
2 *303:X 0.000506416
3 count[6] *18:9 0
*RES
1 *303:X count[6] 49.2271 
*END

*D_NET *11 0.000581298
*CONN
*P count[7] O
*I *304:X O *D sky130_fd_sc_hd__buf_2
*CAP
1 count[7] 0.000269295
2 *304:X 0.000269295
3 count[7] *288:A 0
4 count[7] *19:17 2.79122e-05
5 count[7] *93:21 1.4796e-05
*RES
1 *304:X count[7] 47.5169 
*END

*D_NET *12 0.00153099
*CONN
*P data[0] I
*I *285:A I *D sky130_fd_sc_hd__clkbuf_1
*CAP
1 data[0] 0.000678501
2 *285:A 0
3 *12:19 0.000678501
4 *12:19 *32:51 9.5877e-05
5 *12:19 *35:58 5.94125e-05
6 *12:19 *82:103 1.86973e-05
*RES
1 data[0] *12:19 30.4943 
2 *12:19 *285:A 23 
*END

*D_NET *13 0.0017147
*CONN
*P data[1] I
*I *289:A I *D sky130_fd_sc_hd__clkbuf_1
*CAP
1 data[1] 0.000606457
2 *289:A 0
3 *13:17 0.000606457
4 *13:17 *228:A1 0.000254185
5 *13:17 *41:10 3.64246e-05
6 *13:17 *42:10 1.91648e-05
7 *13:17 *92:10 3.34247e-05
8 count[1] *13:17 0
9 *5:8 *13:17 0.000158584
*RES
1 data[1] *13:17 29.4171 
2 *13:17 *289:A 23 
*END

*D_NET *14 0.00109378
*CONN
*P data[2] I
*I *290:A I *D sky130_fd_sc_hd__clkbuf_1
*CAP
1 data[2] 0.000495791
2 *290:A 0.000495791
3 *290:A *233:A2 3.7122e-06
4 *290:A *35:36 9.84851e-05
*RES
1 data[2] *290:A 48.7093 
*END

*D_NET *15 0.00295457
*CONN
*P data[3] I
*I *291:A I *D sky130_fd_sc_hd__clkbuf_1
*CAP
1 data[3] 0.00113167
2 *291:A 0
3 *15:11 0.00113167
4 *15:11 *288:A 8.06147e-05
5 *15:11 *36:63 0.000222113
6 *15:11 *79:23 6.4393e-05
7 *15:11 *79:31 0.000115382
8 *15:11 *79:47 0.000129462
9 *15:11 *82:39 0
10 count[3] *15:11 7.92657e-05
11 *3:11 *15:11 0
*RES
1 data[3] *15:11 33.7238 
2 *15:11 *291:A 23 
*END

*D_NET *16 0.000826888
*CONN
*P data[4] I
*I *292:A I *D sky130_fd_sc_hd__clkbuf_1
*CAP
1 data[4] 0.000301027
2 *292:A 0.000301027
3 *292:A *296:A 7.1481e-05
4 *292:A *22:13 0
5 *292:A *35:16 7.67334e-05
6 *292:A *83:34 7.66204e-05
7 count[4] *292:A 0
*RES
1 data[4] *292:A 49.0114 
*END

*D_NET *17 0.000450921
*CONN
*P data[5] I
*I *293:A I *D sky130_fd_sc_hd__clkbuf_1
*CAP
1 data[5] 0.00014106
2 *293:A 0.00014106
3 *293:A *83:34 2.82105e-05
4 count[4] *293:A 7.1481e-05
5 count[5] *293:A 6.91091e-05
*RES
1 data[5] *293:A 47.3452 
*END

*D_NET *18 0.00155184
*CONN
*P data[6] I
*I *294:A I *D sky130_fd_sc_hd__clkbuf_1
*CAP
1 data[6] 0.000645764
2 *294:A 0
3 *18:9 0.000645764
4 *18:9 *258:B 0.000143655
5 *18:9 *84:40 9.94414e-05
6 *18:9 *84:57 1.72202e-05
7 count[6] *18:9 0
*RES
1 data[6] *18:9 29.1686 
2 *18:9 *294:A 23 
*END

*D_NET *19 0.000684707
*CONN
*P data[7] I
*I *295:A I *D sky130_fd_sc_hd__clkbuf_1
*CAP
1 data[7] 0.000317774
2 *295:A 0
3 *19:17 0.000317774
4 *19:17 *288:A 2.12457e-05
5 *19:17 *93:21 0
6 count[7] *19:17 2.79122e-05
*RES
1 data[7] *19:17 27.5105 
2 *19:17 *295:A 23 
*END

*D_NET *20 0.000653546
*CONN
*P enable I
*I *296:A I *D sky130_fd_sc_hd__clkbuf_1
*CAP
1 enable 0.00019468
2 *296:A 0.00019468
3 *296:A *83:34 0.000130212
4 count[4] *296:A 6.2493e-05
5 *292:A *296:A 7.1481e-05
*RES
1 enable *296:A 48.4016 
*END

*D_NET *21 0.00164852
*CONN
*P preload I
*I *286:A I *D sky130_fd_sc_hd__buf_2
*CAP
1 preload 0.000415963
2 *286:A 0
3 *21:17 0.000415963
4 *21:17 *84:18 9.84794e-05
5 *21:17 *87:58 9.5877e-05
6 *21:17 *88:30 0.000360001
7 *21:17 *94:10 2.2542e-05
8 *21:17 *94:19 9.91064e-05
9 count[3] *21:17 6.91028e-05
10 *3:11 *21:17 7.1481e-05
*RES
1 preload *21:17 31.6781 
2 *21:17 *286:A 23 
*END

*D_NET *22 0.00148562
*CONN
*P resetn I
*I *283:A I *D sky130_fd_sc_hd__dlygate4sd3_1
*CAP
1 resetn 0.000554132
2 *283:A 0
3 *22:13 0.000554132
4 *22:13 *217:A 9.84794e-05
5 *22:13 *83:18 2.57346e-05
6 *22:13 *96:10 7.92721e-05
7 *22:13 *97:6 0.000117769
8 count[0] *22:13 5.60991e-05
9 *292:A *22:13 0
*RES
1 resetn *22:13 32.0272 
2 *22:13 *283:A 23 
*END

*D_NET *23 0.000730695
*CONN
*P up_down I
*I *288:A I *D sky130_fd_sc_hd__buf_1
*CAP
1 up_down 0.000314417
2 *288:A 0.000314417
3 *288:A *240:B1 0
4 *288:A *93:10 0
5 count[7] *288:A 0
6 *15:11 *288:A 8.06147e-05
7 *19:17 *288:A 2.12457e-05
*RES
1 up_down *288:A 49.5439 
*END

*D_NET *24 0.000547677
*CONN
*I *270:D I *D sky130_fd_sc_hd__dfrtp_1
*I *222:Y O *D sky130_fd_sc_hd__a21oi_1
*CAP
1 *270:D 0
2 *222:Y 0.00018831
3 *24:10 0.00018831
4 *24:10 *217:A 1.33122e-05
5 *24:10 *80:14 2.96323e-05
6 *24:10 *81:8 2.96323e-05
7 *24:10 *97:6 9.84794e-05
*RES
1 *222:Y *24:10 41.0968 
2 *24:10 *270:D 38 
*END

*D_NET *25 0.000384733
*CONN
*I *271:D I *D sky130_fd_sc_hd__dfrtp_1
*I *228:X O *D sky130_fd_sc_hd__a21o_1
*CAP
1 *271:D 0
2 *228:X 0.000154094
3 *25:10 0.000154094
4 *25:10 *42:10 1.85903e-05
5 *5:8 *25:10 5.79559e-05
*RES
1 *228:X *25:10 40.5271 
2 *25:10 *271:D 38 
*END

*D_NET *26 0.000815045
*CONN
*I *272:D I *D sky130_fd_sc_hd__dfrtp_2
*I *234:X O *D sky130_fd_sc_hd__a31o_1
*CAP
1 *272:D 0
2 *234:X 0.000293346
3 *26:10 0.000293346
4 *26:10 *234:A1 1.21972e-05
5 *26:10 *234:A3 3.71251e-05
6 *26:10 *234:B1 6.17437e-06
7 *26:10 *47:8 4.65845e-05
8 *26:10 *79:31 0.000110379
9 *26:10 *82:55 1.58932e-05
*RES
1 *234:X *26:10 42.785 
2 *26:10 *272:D 38 
*END

*D_NET *27 0.000472311
*CONN
*I *273:D I *D sky130_fd_sc_hd__dfrtp_1
*I *240:X O *D sky130_fd_sc_hd__a221o_1
*CAP
1 *273:D 0.000172377
2 *240:X 0.000172377
3 *273:D *240:A2 0.000124628
4 *273:D *88:8 2.92911e-06
*RES
1 *240:X *273:D 48.5479 
*END

*D_NET *28 0.00105124
*CONN
*I *274:D I *D sky130_fd_sc_hd__dfrtp_1
*I *249:X O *D sky130_fd_sc_hd__a31o_1
*CAP
1 *274:D 0
2 *249:X 0.000293314
3 *28:10 0.000293314
4 *28:10 *36:31 0.000326964
5 *28:10 *82:114 0
6 *28:10 *89:18 0.000137651
*RES
1 *249:X *28:10 43.945 
2 *28:10 *274:D 38 
*END

*D_NET *29 0.000233186
*CONN
*I *275:D I *D sky130_fd_sc_hd__dfrtp_1
*I *255:X O *D sky130_fd_sc_hd__a31o_1
*CAP
1 *275:D 0
2 *255:X 9.41644e-05
3 *29:8 9.41644e-05
4 *29:8 *80:45 4.48568e-05
*RES
1 *255:X *29:8 39.9057 
2 *29:8 *275:D 38 
*END

*D_NET *30 0.00184903
*CONN
*I *276:D I *D sky130_fd_sc_hd__dfrtp_1
*I *264:X O *D sky130_fd_sc_hd__a31o_1
*CAP
1 *276:D 0.000231097
2 *264:X 0.000211037
3 *30:8 0.000442134
4 *276:D *276:RESET_B 2.56078e-05
5 *276:D *35:91 0.000349493
6 *276:D *82:39 0.000131733
7 *30:8 *71:10 8.62876e-05
8 *30:8 *91:10 0.000371636
*RES
1 *264:X *30:8 43.075 
2 *30:8 *276:D 44.815 
*END

*D_NET *31 0.00129559
*CONN
*I *277:D I *D sky130_fd_sc_hd__dfrtp_1
*I *269:X O *D sky130_fd_sc_hd__a21o_1
*CAP
1 *277:D 0.000262166
2 *269:X 0.000164008
3 *31:8 0.000426174
4 *277:D *277:CLK 8.82053e-06
5 *277:D *277:RESET_B 5.74144e-05
6 *31:8 *36:71 0
7 *31:8 *77:8 8.85189e-05
8 *31:8 *82:16 0.000109443
9 *31:8 *82:39 2.11157e-05
10 *31:8 *84:18 1.60583e-05
11 *31:8 *103:10 0.000141869
*RES
1 *269:X *31:8 42.0186 
2 *31:8 *277:D 41.5421 
*END

*D_NET *32 0.00319028
*CONN
*I *221:B2 I *D sky130_fd_sc_hd__a22o_1
*I *229:A2 I *D sky130_fd_sc_hd__o21a_1
*I *226:A1 I *D sky130_fd_sc_hd__o21a_1
*I *225:A I *D sky130_fd_sc_hd__nand2_1
*I *216:Y O *D sky130_fd_sc_hd__inv_2
*CAP
1 *221:B2 0
2 *229:A2 0.000254494
3 *226:A1 0
4 *225:A 0.000111308
5 *216:Y 0
6 *32:51 0.000439549
7 *32:12 0.000111308
8 *32:10 0.000529211
9 *32:4 0.000714266
10 *225:A *217:A 4.00259e-06
11 *225:A *226:B1 4.00259e-06
12 *225:A *36:46 5.47927e-05
13 *229:A2 *229:A1 2.30292e-05
14 *229:A2 *39:27 8.94394e-05
15 *32:10 *271:CLK 0.000182826
16 *32:10 *37:8 0
17 *32:10 *39:27 1.14452e-05
18 *32:10 *40:8 4.08641e-05
19 *32:10 *80:14 0
20 *32:10 *86:30 2.76611e-06
21 *32:51 *221:A2 9.91895e-05
22 *32:51 *33:8 0.000233851
23 *32:51 *35:58 5.3304e-05
24 *32:51 *40:8 0.000109245
25 *32:51 *82:103 2.55136e-05
26 *12:19 *32:51 9.5877e-05
*RES
1 *216:Y *32:4 23 
2 *32:4 *32:10 18.9564 
3 *32:10 *32:12 15 
4 *32:12 *225:A 25.5686 
5 *32:12 *226:A1 23 
6 *32:10 *229:A2 41.8321 
7 *32:4 *32:51 38.7414 
8 *32:51 *221:B2 23 
*END

*D_NET *33 0.00122399
*CONN
*I *221:A2 I *D sky130_fd_sc_hd__a22o_1
*I *217:Y O *D sky130_fd_sc_hd__inv_2
*CAP
1 *221:A2 7.86589e-05
2 *217:Y 0.000239608
3 *33:8 0.000318267
4 *221:A2 *82:103 5.50106e-05
5 *33:8 *37:8 0.000134028
6 *33:8 *40:8 4.06512e-05
7 *33:8 *82:103 2.47304e-05
8 *32:51 *221:A2 9.91895e-05
9 *32:51 *33:8 0.000233851
*RES
1 *217:Y *33:8 43.075 
2 *33:8 *221:A2 40.0507 
*END

*D_NET *34 0.00049894
*CONN
*I *237:A2 I *D sky130_fd_sc_hd__o21ai_1
*I *218:Y O *D sky130_fd_sc_hd__inv_2
*CAP
1 *237:A2 0
2 *218:Y 0.000100995
3 *34:10 0.000100995
4 *34:10 *237:B1 1.47563e-05
5 *34:10 *87:58 0.000143468
6 *34:10 *94:25 0.000138727
*RES
1 *218:Y *34:10 40.5271 
2 *34:10 *237:A2 38 
*END

*D_NET *35 0.0165588
*CONN
*I *263:B1 I *D sky130_fd_sc_hd__a22o_1
*I *268:B1 I *D sky130_fd_sc_hd__a22o_1
*I *240:B1 I *D sky130_fd_sc_hd__a221o_1
*I *254:B1 I *D sky130_fd_sc_hd__a22o_1
*I *248:B1 I *D sky130_fd_sc_hd__a22o_1
*I *221:B1 I *D sky130_fd_sc_hd__a22o_1
*I *227:B1 I *D sky130_fd_sc_hd__a22o_1
*I *233:B1 I *D sky130_fd_sc_hd__a22o_1
*I *219:Y O *D sky130_fd_sc_hd__nor2_2
*CAP
1 *263:B1 0
2 *268:B1 3.44254e-05
3 *240:B1 0.000239795
4 *254:B1 0
5 *248:B1 9.06436e-05
6 *221:B1 0
7 *227:B1 3.02209e-05
8 *233:B1 0
9 *219:Y 0.000122064
10 *35:119 9.39389e-05
11 *35:91 0.00146293
12 *35:87 0.00238204
13 *35:74 0.00124967
14 *35:58 0.000223633
15 *35:36 0.00127239
16 *35:26 0.00151417
17 *35:16 0.00118952
18 *35:10 0.000953487
19 *35:8 0.000380857
20 *227:B1 *227:A1 3.71632e-05
21 *227:B1 *271:CLK 5.67058e-05
22 *227:B1 *82:95 1.03836e-05
23 *240:B1 *240:A2 0
24 *240:B1 *240:B2 7.11152e-05
25 *240:B1 *84:18 0.00030233
26 *240:B1 *88:14 1.50677e-05
27 *240:B1 *93:10 4.08641e-05
28 *248:B1 *248:A2 7.4416e-05
29 *268:B1 *84:18 9.26098e-05
30 *268:B1 *93:10 4.42688e-05
31 *268:B1 *93:21 6.07611e-06
32 *35:8 *220:B 0.000139352
33 *35:10 *301:A 0.000208827
34 *35:10 *82:144 6.16439e-05
35 *35:10 *83:34 0
36 *35:10 *104:8 4.06512e-05
37 *35:16 *216:A 0.000128618
38 *35:16 *301:A 3.70094e-05
39 *35:16 *82:114 0.00013961
40 *35:16 *83:18 0
41 *35:16 *83:34 0
42 *35:16 *85:8 2.98648e-05
43 *35:16 *85:23 3.90766e-05
44 *35:16 *85:34 1.94522e-05
45 *35:16 *89:10 0.000300098
46 *35:16 *89:51 8.9458e-05
47 *35:16 *96:10 7.28226e-05
48 *35:26 *216:A 6.40287e-05
49 *35:26 *227:A1 0
50 *35:26 *271:CLK 0.000293503
51 *35:26 *82:95 0.000332669
52 *35:26 *82:114 0.00012636
53 *35:36 *228:A1 0.000183733
54 *35:36 *233:A1 3.22879e-05
55 *35:36 *233:A2 5.30121e-05
56 *35:36 *298:A 0.000100615
57 *35:36 *40:8 7.02881e-05
58 *35:58 *81:8 6.6869e-05
59 *35:58 *82:103 0
60 *35:58 *85:23 0
61 *35:74 *255:A1 0
62 *35:74 *301:A 0.000186025
63 *35:74 *82:144 0.000348465
64 *35:87 *255:A1 0
65 *35:87 *82:144 3.70094e-05
66 *35:87 *83:52 0.00023421
67 *35:87 *90:10 7.80251e-05
68 *35:91 *263:B2 2.31687e-05
69 *35:91 *268:A1 5.3304e-05
70 *35:91 *276:CLK 7.88926e-05
71 *35:91 *276:RESET_B 8.39049e-06
72 *35:91 *83:52 3.68665e-05
73 *35:91 *84:12 8.91468e-07
74 *35:91 *91:10 2.93335e-05
75 *35:119 *82:39 7.45089e-05
76 *35:119 *83:70 2.67914e-05
77 *35:119 *84:57 0
78 *276:D *35:91 0.000349493
79 *288:A *240:B1 0
80 *290:A *35:36 9.84851e-05
81 *292:A *35:16 7.67334e-05
82 *5:8 *35:36 8.48312e-05
83 *12:19 *35:58 5.94125e-05
84 *32:51 *35:58 5.3304e-05
*RES
1 *219:Y *35:8 40.0507 
2 *35:8 *35:10 2.96214 
3 *35:10 *35:16 32.0271 
4 *35:16 *35:26 7.62286 
5 *35:26 *35:36 48.6014 
6 *35:36 *233:B1 23 
7 *35:26 *227:B1 24.1186 
8 *35:16 *35:58 33.9357 
9 *35:58 *221:B1 23 
10 *35:10 *248:B1 39.5743 
11 *35:8 *35:74 4.72286 
12 *35:74 *254:B1 38 
13 *35:74 *35:87 31.095 
14 *35:87 *35:91 31.82 
15 *35:91 *240:B1 43.6136 
16 *35:91 *268:B1 39.2014 
17 *35:87 *35:119 31.5536 
18 *35:119 *263:B1 23 
*END

*D_NET *36 0.0120019
*CONN
*I *249:A1 I *D sky130_fd_sc_hd__a31o_1
*I *226:B1 I *D sky130_fd_sc_hd__o21a_1
*I *238:B1 I *D sky130_fd_sc_hd__o21ai_1
*I *264:A1 I *D sky130_fd_sc_hd__a31o_1
*I *269:A1 I *D sky130_fd_sc_hd__a21o_1
*I *234:A1 I *D sky130_fd_sc_hd__a31o_1
*I *222:A2 I *D sky130_fd_sc_hd__a21oi_1
*I *255:A1 I *D sky130_fd_sc_hd__a31o_1
*I *220:X O *D sky130_fd_sc_hd__and2b_2
*CAP
1 *249:A1 2.34823e-05
2 *226:B1 2.1727e-05
3 *238:B1 0
4 *264:A1 0
5 *269:A1 4.01985e-05
6 *234:A1 7.3545e-05
7 *222:A2 4.40386e-05
8 *255:A1 0.000377136
9 *220:X 5.45426e-05
10 *36:86 0.00090189
11 *36:71 0.00152906
12 *36:63 0.00110563
13 *36:48 0.0012411
14 *36:46 0.000989226
15 *36:31 0.000722389
16 *36:25 0.000554237
17 *36:8 0.00060268
18 *222:A2 *80:14 2.96051e-05
19 *222:A2 *81:8 0
20 *222:A2 *82:114 0
21 *234:A1 *234:B1 0.00010018
22 *249:A1 *248:A2 0
23 *255:A1 *301:A 0
24 *255:A1 *58:8 0
25 *255:A1 *80:45 0
26 *255:A1 *82:127 1.02387e-05
27 *36:25 *249:B1 4.06849e-05
28 *36:25 *58:8 0
29 *36:25 *82:127 5.31444e-05
30 *36:25 *89:18 2.25419e-05
31 *36:31 *249:A3 6.17437e-06
32 *36:31 *58:8 3.70094e-05
33 *36:31 *80:10 7.03663e-05
34 *36:31 *80:14 9.52677e-05
35 *36:31 *80:45 0.000163158
36 *36:31 *82:114 0
37 *36:31 *89:18 3.34247e-05
38 *36:46 *217:A 0.000182826
39 *36:46 *39:14 0.00010018
40 *36:46 *39:27 8.264e-05
41 *36:48 *234:B1 4.17736e-05
42 *36:48 *39:14 2.4754e-05
43 *36:48 *41:10 1.83327e-05
44 *36:63 *236:A 9.58714e-05
45 *36:63 *238:A2 4.9662e-05
46 *36:63 *281:A 9.41704e-05
47 *36:63 *43:24 0.000160723
48 *36:63 *44:34 0
49 *36:63 *48:23 1.56762e-05
50 *36:63 *49:10 0
51 *36:63 *79:31 0.000114524
52 *36:71 *276:CLK 8.38695e-05
53 *36:71 *51:10 3.3746e-05
54 *36:71 *77:8 0
55 *36:71 *79:12 0.000273971
56 *36:71 *79:47 8.82524e-05
57 *36:71 *82:12 3.96198e-05
58 *36:71 *82:16 0
59 *36:71 *99:10 0.0004745
60 *36:86 *261:A 6.65795e-05
61 *36:86 *261:B 0.000139069
62 *36:86 *70:30 0.000248762
63 *36:86 *72:10 4.15283e-06
64 *36:86 *73:10 0
65 *36:86 *91:10 5.44889e-06
66 *225:A *226:B1 4.00259e-06
67 *225:A *36:46 5.47927e-05
68 *3:11 *36:63 0
69 *15:11 *36:63 0.000222113
70 *26:10 *234:A1 1.21972e-05
71 *28:10 *36:31 0.000326964
72 *31:8 *36:71 0
73 *35:74 *255:A1 0
74 *35:87 *255:A1 0
*RES
1 *220:X *36:8 38.6214 
2 *36:8 *255:A1 45.105 
3 *36:8 *36:25 18.6043 
4 *36:25 *36:31 24.6943 
5 *36:31 *222:A2 38.8493 
6 *36:31 *36:46 21.8357 
7 *36:46 *36:48 12.0557 
8 *36:48 *234:A1 24.5743 
9 *36:48 *36:63 40.7714 
10 *36:63 *36:71 44.0236 
11 *36:71 *269:A1 23.6214 
12 *36:71 *36:86 45.8464 
13 *36:86 *264:A1 23 
14 *36:63 *238:B1 23 
15 *36:46 *226:B1 23.4971 
16 *36:25 *249:A1 23.4971 
*END

*D_NET *37 0.00076937
*CONN
*I *222:B1 I *D sky130_fd_sc_hd__a21oi_1
*I *221:X O *D sky130_fd_sc_hd__a22o_1
*CAP
1 *222:B1 0
2 *221:X 0.000192023
3 *37:8 0.000192023
4 *37:8 *80:14 0.000165018
5 *37:8 *81:8 0
6 *37:8 *82:103 8.62783e-05
7 *32:10 *37:8 0
8 *33:8 *37:8 0.000134028
*RES
1 *221:X *37:8 42.3707 
2 *37:8 *222:B1 38 
*END

*D_NET *38 0.00084829
*CONN
*I *229:B1 I *D sky130_fd_sc_hd__o21a_1
*I *223:Y O *D sky130_fd_sc_hd__nand2b_1
*CAP
1 *229:B1 0
2 *223:Y 0.00025484
3 *38:8 0.00025484
4 *38:8 *223:B 7.87147e-05
5 *38:8 *229:A1 6.58043e-05
6 *38:8 *39:6 0.000146822
7 *38:8 *43:10 3.57819e-05
8 *38:8 *94:53 1.14876e-05
*RES
1 *223:Y *38:8 28.7586 
2 *38:8 *229:B1 23 
*END

*D_NET *39 0.00162732
*CONN
*I *229:A1 I *D sky130_fd_sc_hd__o21a_1
*I *225:B I *D sky130_fd_sc_hd__nand2_1
*I *226:A2 I *D sky130_fd_sc_hd__o21a_1
*I *224:X O *D sky130_fd_sc_hd__xor2_1
*CAP
1 *229:A1 9.35446e-05
2 *225:B 0
3 *226:A2 0
4 *224:X 0.000133966
5 *39:27 0.000131713
6 *39:14 0.000314094
7 *39:6 0.000409891
8 *39:14 *86:12 0
9 *39:27 *80:14 0
10 *229:A2 *229:A1 2.30292e-05
11 *229:A2 *39:27 8.94394e-05
12 *32:10 *39:27 1.14452e-05
13 *36:46 *39:14 0.00010018
14 *36:46 *39:27 8.264e-05
15 *36:48 *39:14 2.4754e-05
16 *38:8 *229:A1 6.58043e-05
17 *38:8 *39:6 0.000146822
*RES
1 *224:X *39:6 25.0507 
2 *39:6 *39:14 32.7757 
3 *39:14 *226:A2 23 
4 *39:14 *39:27 32.2993 
5 *39:27 *225:B 23 
6 *39:6 *229:A1 25.2993 
*END

*D_NET *40 0.00146549
*CONN
*I *228:A1 I *D sky130_fd_sc_hd__a21o_1
*I *225:Y O *D sky130_fd_sc_hd__nand2_1
*CAP
1 *228:A1 0.000106643
2 *225:Y 0.00027169
3 *40:8 0.000378332
4 *40:8 *227:B2 9.85586e-06
5 *40:8 *298:A 0
6 *40:8 *86:30 0
7 *13:17 *228:A1 0.000254185
8 *32:10 *40:8 4.08641e-05
9 *32:51 *40:8 0.000109245
10 *33:8 *40:8 4.06512e-05
11 *35:36 *228:A1 0.000183733
12 *35:36 *40:8 7.02881e-05
*RES
1 *225:Y *40:8 43.4271 
2 *40:8 *228:A1 41.48 
*END

*D_NET *41 0.00106859
*CONN
*I *228:A2 I *D sky130_fd_sc_hd__a21o_1
*I *226:X O *D sky130_fd_sc_hd__o21a_1
*CAP
1 *228:A2 0
2 *226:X 0.000326468
3 *41:10 0.000326468
4 *41:10 *298:A 0.000247046
5 *41:10 *42:10 1.02133e-05
6 *41:10 *86:12 0
7 *41:10 *86:30 3.53031e-05
8 *41:10 *92:10 6.83388e-05
9 *13:17 *41:10 3.64246e-05
10 *36:48 *41:10 1.83327e-05
*RES
1 *226:X *41:10 43.6964 
2 *41:10 *228:A2 38 
*END

*D_NET *42 0.000504455
*CONN
*I *228:B1 I *D sky130_fd_sc_hd__a21o_1
*I *227:X O *D sky130_fd_sc_hd__a22o_1
*CAP
1 *228:B1 0
2 *227:X 0.000159073
3 *42:10 0.000159073
4 *42:10 *82:82 5.3304e-05
5 *42:10 *92:10 8.50366e-05
6 *13:17 *42:10 1.91648e-05
7 *25:10 *42:10 1.85903e-05
8 *41:10 *42:10 1.02133e-05
*RES
1 *227:X *42:10 40.8793 
2 *42:10 *228:B1 38 
*END

*D_NET *43 0.00295989
*CONN
*I *242:A3 I *D sky130_fd_sc_hd__o31ai_4
*I *231:A I *D sky130_fd_sc_hd__nand2_1
*I *232:A I *D sky130_fd_sc_hd__or2_1
*I *229:X O *D sky130_fd_sc_hd__o21a_1
*CAP
1 *242:A3 0
2 *231:A 0
3 *232:A 4.05375e-05
4 *229:X 0.000246047
5 *43:24 0.000443066
6 *43:12 0.000402528
7 *43:10 0.000246047
8 *232:A *44:10 9.84851e-05
9 *232:A *44:19 4.17736e-05
10 *232:A *94:38 7.59794e-05
11 *43:10 *224:B 1.01436e-05
12 *43:10 *94:64 0.000135557
13 *43:24 *241:B1_N 0.000103707
14 *43:24 *44:19 5.3304e-05
15 *43:24 *44:34 0.000140935
16 *43:24 *53:8 0.000672681
17 *43:24 *88:30 2.93845e-05
18 *43:24 *94:38 2.32101e-05
19 *36:63 *43:24 0.000160723
20 *38:8 *43:10 3.57819e-05
*RES
1 *229:X *43:10 41.48 
2 *43:10 *43:12 15 
3 *43:12 *43:24 41.6207 
4 *43:24 *232:A 24.5743 
5 *43:24 *231:A 23 
6 *43:12 *242:A3 23 
*END

*D_NET *44 0.00265051
*CONN
*I *242:A2 I *D sky130_fd_sc_hd__o31ai_4
*I *231:B I *D sky130_fd_sc_hd__nand2_1
*I *232:B I *D sky130_fd_sc_hd__or2_1
*I *230:X O *D sky130_fd_sc_hd__xor2_1
*CAP
1 *242:A2 0
2 *231:B 0
3 *232:B 0
4 *230:X 0.000230685
5 *44:34 0.000299373
6 *44:19 0.000406069
7 *44:10 0.000337381
8 *44:10 *230:A 9.84794e-05
9 *44:10 *46:8 5.12328e-05
10 *44:10 *87:41 5.67058e-05
11 *44:10 *87:58 0.000127821
12 *44:10 *94:38 0.000308127
13 *44:19 *94:38 1.22822e-05
14 *44:34 *241:B1_N 4.64451e-05
15 *44:34 *49:10 1.14452e-05
16 *44:34 *94:38 0.000156058
17 *232:A *44:10 9.84851e-05
18 *232:A *44:19 4.17736e-05
19 *3:11 *44:34 0.00017391
20 *36:63 *44:34 0
21 *43:24 *44:19 5.3304e-05
22 *43:24 *44:34 0.000140935
*RES
1 *230:X *44:10 29.8564 
2 *44:10 *232:B 23 
3 *44:10 *44:19 2.07143 
4 *44:19 *231:B 23 
5 *44:19 *44:34 37.1879 
6 *44:34 *242:A2 23 
*END

*D_NET *45 0.000946314
*CONN
*I *234:A2 I *D sky130_fd_sc_hd__a31o_1
*I *231:Y O *D sky130_fd_sc_hd__nand2_1
*CAP
1 *234:A2 0
2 *231:Y 0.000219429
3 *45:10 0.000219429
4 *45:10 *79:31 0.000141869
5 *45:10 *82:55 0.000141888
6 *45:10 *94:38 0.000223698
*RES
1 *231:Y *45:10 42.4329 
2 *45:10 *234:A2 38 
*END

*D_NET *46 0.00134801
*CONN
*I *237:B1 I *D sky130_fd_sc_hd__o21ai_1
*I *234:A3 I *D sky130_fd_sc_hd__a31o_1
*I *232:X O *D sky130_fd_sc_hd__or2_1
*CAP
1 *237:B1 0.00010306
2 *234:A3 0.000251601
3 *232:X 0.000114768
4 *46:8 0.00046943
5 *234:A3 *82:55 8.05049e-05
6 *234:A3 *87:32 0
7 *234:A3 *87:58 6.10775e-05
8 *234:A3 *94:25 1.27191e-05
9 *237:B1 *82:55 4.90994e-05
10 *237:B1 *87:58 0.000102638
11 *26:10 *234:A3 3.71251e-05
12 *34:10 *237:B1 1.47563e-05
13 *44:10 *46:8 5.12328e-05
*RES
1 *232:X *46:8 39.5743 
2 *46:8 *234:A3 43.2407 
3 *46:8 *237:B1 40.2579 
*END

*D_NET *47 0.000912572
*CONN
*I *234:B1 I *D sky130_fd_sc_hd__a31o_1
*I *233:X O *D sky130_fd_sc_hd__a22o_1
*CAP
1 *234:B1 6.37371e-05
2 *233:X 0.000295192
3 *47:8 0.000358929
4 *47:8 *233:A1 0
5 *47:8 *79:31 0
6 *47:8 *82:55 0
7 *234:A1 *234:B1 0.00010018
8 *26:10 *234:B1 6.17437e-06
9 *26:10 *47:8 4.65845e-05
10 *36:48 *234:B1 4.17736e-05
*RES
1 *233:X *47:8 42.7229 
2 *47:8 *234:B1 39.5743 
*END

*D_NET *48 0.0018925
*CONN
*I *236:A I *D sky130_fd_sc_hd__inv_2
*I *238:A1 I *D sky130_fd_sc_hd__o21ai_1
*I *239:A1 I *D sky130_fd_sc_hd__a21oi_1
*I *235:Y O *D sky130_fd_sc_hd__xnor2_1
*CAP
1 *236:A 7.90788e-05
2 *238:A1 0
3 *239:A1 0
4 *235:Y 0
5 *48:23 0.000407102
6 *48:12 0.000226953
7 *48:4 0.000554976
8 *48:12 *88:18 8.62876e-05
9 *48:23 *281:A 0.000305425
10 *48:23 *51:10 9.84794e-05
11 count[3] *48:12 2.26497e-05
12 *36:63 *236:A 9.58714e-05
13 *36:63 *48:23 1.56762e-05
*RES
1 *235:Y *48:4 23 
2 *48:4 *48:12 33.2521 
3 *48:12 *239:A1 23 
4 *48:4 *48:23 6.38 
5 *48:23 *238:A1 23 
6 *48:23 *236:A 24.5743 
*END

*D_NET *49 0.000688626
*CONN
*I *242:A1 I *D sky130_fd_sc_hd__o31ai_4
*I *236:Y O *D sky130_fd_sc_hd__inv_2
*CAP
1 *242:A1 0
2 *236:Y 0.000300821
3 *49:10 0.000300821
4 *3:11 *49:10 7.55388e-05
5 *36:63 *49:10 0
6 *44:34 *49:10 1.14452e-05
*RES
1 *236:Y *49:10 42.785 
2 *49:10 *242:A1 38 
*END

*D_NET *50 0.00206398
*CONN
*I *239:A2 I *D sky130_fd_sc_hd__a21oi_1
*I *238:A2 I *D sky130_fd_sc_hd__o21ai_1
*I *237:Y O *D sky130_fd_sc_hd__o21ai_1
*CAP
1 *239:A2 0.000326012
2 *238:A2 0.000227233
3 *237:Y 4.37013e-05
4 *50:8 0.000596947
5 *238:A2 *281:A 6.16164e-05
6 *239:A2 *239:B1 0.000269775
7 *239:A2 *52:10 2.30292e-05
8 *239:A2 *82:12 0.00026599
9 *239:A2 *84:18 8.58383e-05
10 *50:8 *82:12 8.62783e-05
11 *50:8 *84:18 2.79004e-05
12 *36:63 *238:A2 4.9662e-05
*RES
1 *237:Y *50:8 39.2014 
2 *50:8 *238:A2 41.0036 
3 *50:8 *239:A2 46.0993 
*END

*D_NET *51 0.00129253
*CONN
*I *239:B1 I *D sky130_fd_sc_hd__a21oi_1
*I *238:Y O *D sky130_fd_sc_hd__o21ai_1
*CAP
1 *239:B1 0.00019074
2 *238:Y 0.000134594
3 *51:10 0.000325334
4 *239:B1 *79:6 9.41704e-05
5 *51:10 *79:12 3.47781e-05
6 *51:10 *82:12 0.000110913
7 *239:A2 *239:B1 0.000269775
8 *36:71 *51:10 3.3746e-05
9 *48:23 *51:10 9.84794e-05
*RES
1 *238:Y *51:10 40.6514 
2 *51:10 *239:B1 41.9564 
*END

*D_NET *52 0.000471996
*CONN
*I *240:C1 I *D sky130_fd_sc_hd__a221o_1
*I *239:Y O *D sky130_fd_sc_hd__a21oi_1
*CAP
1 *240:C1 0
2 *239:Y 0.000147331
3 *52:10 0.000147331
4 *52:10 *84:18 7.54991e-05
5 *52:10 *88:18 7.88062e-05
6 *239:A2 *52:10 2.30292e-05
*RES
1 *239:Y *52:10 40.8793 
2 *52:10 *240:C1 38 
*END

*D_NET *53 0.00190118
*CONN
*I *242:B1 I *D sky130_fd_sc_hd__o31ai_4
*I *241:Y O *D sky130_fd_sc_hd__o21bai_1
*CAP
1 *242:B1 0
2 *241:Y 0.00061425
3 *53:8 0.00061425
4 *43:24 *53:8 0.000672681
*RES
1 *241:Y *53:8 32.57 
2 *53:8 *242:B1 23 
*END

*D_NET *54 0.00347199
*CONN
*I *246:A I *D sky130_fd_sc_hd__or2_1
*I *260:A1 I *D sky130_fd_sc_hd__a31o_1
*I *251:A1 I *D sky130_fd_sc_hd__a21o_1
*I *247:A I *D sky130_fd_sc_hd__nand2_1
*I *242:Y O *D sky130_fd_sc_hd__o31ai_4
*CAP
1 *246:A 0.000162092
2 *260:A1 0
3 *251:A1 0.000148921
4 *247:A 6.42493e-05
5 *242:Y 0.000239694
6 *54:30 0.000190483
7 *54:19 0.000342352