*SPEF "ieee 1481-1999"
*DESIGN "counter"
*DATE "12:45:43 Wednesday December 04, 2024"
*VENDOR "The OpenROAD Project"
*PROGRAM "OpenROAD"
*VERSION "b16bda7e82721d10566ff7e2b68f1ff0be9f9e38"
*DESIGN_FLOW "NAME_SCOPE LOCAL" "PIN_CAP NONE"
*DIVIDER /
*DELIMITER :
*BUS_DELIMITER []
*T_UNIT 1 NS
*C_UNIT 1 PF
*R_UNIT 1 OHM
*L_UNIT 1 HENRY

*NAME_MAP
*3 clk
*4 count[0]
*5 count[1]
*6 count[2]
*7 count[3]
*8 count[4]
*9 count[5]
*10 count[6]
*11 count[7]
*12 data[0]
*13 data[1]
*14 data[2]
*15 data[3]
*16 data[4]
*17 data[5]
*18 data[6]
*19 data[7]
*20 enable
*21 preload
*22 resetn
*23 up_down
*24 _000_
*25 _001_
*26 _002_
*27 _003_
*28 _004_
*29 _005_
*30 _006_
*31 _007_
*32 _008_
*33 _009_
*34 _010_
*35 _011_
*36 _012_
*37 _013_
*38 _014_
*39 _015_
*40 _016_
*41 _017_
*42 _018_
*43 _019_
*44 _020_
*45 _021_
*46 _022_
*47 _023_
*48 _024_
*49 _025_
*50 _026_
*51 _027_
*52 _028_
*53 _029_
*54 _030_
*55 _031_
*56 _032_
*57 _033_
*58 _034_
*59 _035_
*60 _036_
*61 _037_
*62 _038_
*63 _039_
*64 _040_
*65 _041_
*66 _042_
*67 _043_
*68 _044_
*69 _045_
*70 _046_
*71 _047_
*72 _048_
*73 _049_
*74 _050_
*75 _051_
*76 _052_
*77 _053_
*78 clknet_0_clk
*79 clknet_1_0__leaf_clk
*80 clknet_1_1__leaf_clk
*81 net1
*82 net10
*83 net11
*84 net12
*85 net13
*86 net14
*87 net15
*88 net16
*89 net17
*90 net18
*91 net19
*92 net2
*93 net20
*94 net21
*95 net22
*96 net23
*97 net24
*98 net3
*99 net4
*100 net5
*101 net6
*102 net7
*103 net8
*104 net9
*105 FILLER_0_0_15
*106 FILLER_0_0_27
*107 FILLER_0_0_29
*108 FILLER_0_0_3
*109 FILLER_0_0_54
*110 FILLER_0_0_67
*111 FILLER_0_10_18
*112 FILLER_0_10_26
*113 FILLER_0_10_29
*114 FILLER_0_10_35
*115 FILLER_0_10_54
*116 FILLER_0_10_6
*117 FILLER_0_10_66
*118 FILLER_0_11_15
*119 FILLER_0_11_24
*120 FILLER_0_11_32
*121 FILLER_0_11_46
*122 FILLER_0_11_54
*123 FILLER_0_11_57
*124 FILLER_0_11_69
*125 FILLER_0_11_7
*126 FILLER_0_11_77
*127 FILLER_0_12_15
*128 FILLER_0_12_27
*129 FILLER_0_12_29
*130 FILLER_0_12_3
*131 FILLER_0_12_35
*132 FILLER_0_12_54
*133 FILLER_0_12_57
*134 FILLER_0_12_69
*135 FILLER_0_12_77
*136 FILLER_0_1_51
*137 FILLER_0_1_57
*138 FILLER_0_2_22
*139 FILLER_0_2_29
*140 FILLER_0_2_41
*141 FILLER_0_2_7
*142 FILLER_0_2_77
*143 FILLER_0_3_13
*144 FILLER_0_3_25
*145 FILLER_0_3_49
*146 FILLER_0_3_55
*147 FILLER_0_3_57
*148 FILLER_0_4_49
*149 FILLER_0_4_74
*150 FILLER_0_4_9
*151 FILLER_0_5_10
*152 FILLER_0_5_21
*153 FILLER_0_5_26
*154 FILLER_0_5_38
*155 FILLER_0_5_54
*156 FILLER_0_5_57
*157 FILLER_0_6_29
*158 FILLER_0_6_3
*159 FILLER_0_6_64
*160 FILLER_0_7_36
*161 FILLER_0_7_44
*162 FILLER_0_7_53
*163 FILLER_0_7_62
*164 FILLER_0_7_7
*165 FILLER_0_8_23
*166 FILLER_0_8_27
*167 FILLER_0_8_29
*168 FILLER_0_8_41
*169 FILLER_0_8_50
*170 FILLER_0_9_14
*171 FILLER_0_9_49
*172 FILLER_0_9_55
*173 FILLER_0_9_57
*174 FILLER_0_9_6
*175 PHY_EDGE_ROW_0_Left_13
*176 PHY_EDGE_ROW_0_Right_0
*177 PHY_EDGE_ROW_10_Left_23
*178 PHY_EDGE_ROW_10_Right_10
*179 PHY_EDGE_ROW_11_Left_24
*180 PHY_EDGE_ROW_11_Right_11
*181 PHY_EDGE_ROW_12_Left_25
*182 PHY_EDGE_ROW_12_Right_12
*183 PHY_EDGE_ROW_1_Left_14
*184 PHY_EDGE_ROW_1_Right_1
*185 PHY_EDGE_ROW_2_Left_15
*186 PHY_EDGE_ROW_2_Right_2
*187 PHY_EDGE_ROW_3_Left_16
*188 PHY_EDGE_ROW_3_Right_3
*189 PHY_EDGE_ROW_4_Left_17
*190 PHY_EDGE_ROW_4_Right_4
*191 PHY_EDGE_ROW_5_Left_18
*192 PHY_EDGE_ROW_5_Right_5
*193 PHY_EDGE_ROW_6_Left_19
*194 PHY_EDGE_ROW_6_Right_6
*195 PHY_EDGE_ROW_7_Left_20
*196 PHY_EDGE_ROW_7_Right_7
*197 PHY_EDGE_ROW_8_Left_21
*198 PHY_EDGE_ROW_8_Right_8
*199 PHY_EDGE_ROW_9_Left_22
*200 PHY_EDGE_ROW_9_Right_9
*201 TAP_TAPCELL_ROW_0_26
*202 TAP_TAPCELL_ROW_0_27
*203 TAP_TAPCELL_ROW_10_37
*204 TAP_TAPCELL_ROW_11_38
*205 TAP_TAPCELL_ROW_12_39
*206 TAP_TAPCELL_ROW_12_40
*207 TAP_TAPCELL_ROW_1_28
*208 TAP_TAPCELL_ROW_2_29
*209 TAP_TAPCELL_ROW_3_30
*210 TAP_TAPCELL_ROW_4_31
*211 TAP_TAPCELL_ROW_5_32
*212 TAP_TAPCELL_ROW_6_33
*213 TAP_TAPCELL_ROW_7_34
*214 TAP_TAPCELL_ROW_8_35
*215 TAP_TAPCELL_ROW_9_36
*216 _054_
*217 _055_
*218 _056_
*219 _057_
*220 _058_
*221 _059_
*222 _060_
*223 _061_
*224 _062_
*225 _063_
*226 _064_
*227 _065_
*228 _066_
*229 _067_
*230 _068_
*231 _069_
*232 _070_
*233 _071_
*234 _072_
*235 _073_
*236 _074_
*237 _075_
*238 _076_
*239 _077_
*240 _078_
*241 _079_
*242 _080_
*243 _081_
*244 _082_
*245 _083_
*246 _084_
*247 _085_
*248 _086_
*249 _087_
*250 _088_
*251 _089_
*252 _090_
*253 _091_
*254 _092_
*255 _093_
*256 _094_
*257 _095_
*258 _096_
*259 _097_
*260 _098_
*261 _099_
*262 _100_
*263 _101_
*264 _102_
*265 _103_
*266 _104_
*267 _105_
*268 _106_
*269 _107_
*270 _108_
*271 _109_
*272 _110_
*273 _111_
*274 _112_
*275 _113_
*276 _114_
*277 _115_
*278 clkbuf_0_clk
*279 clkbuf_1_0__f_clk
*280 clkbuf_1_1__f_clk
*281 clkload0
*282 fanout21
*283 hold2
*284 hold3
*285 input1
*286 input10
*287 input11
*288 input12
*289 input2
*290 input3
*291 input4
*292 input5
*293 input6
*294 input7
*295 input8
*296 input9
*297 output13
*298 output14
*299 output15
*300 output16
*301 output17
*302 output18
*303 output19
*304 output20
*305 rebuffer1

*PORTS
clk I
count[0] O
count[1] O
count[2] O
count[3] O
count[4] O
count[5] O
count[6] O
count[7] O
data[0] I
data[1] I
data[2] I
data[3] I
data[4] I
data[5] I
data[6] I
data[7] I
enable I
preload I
resetn I
up_down I

*D_NET *3 0.00337738
*CONN
*P clk I
*I *278:A I *D sky130_fd_sc_hd__clkbuf_16
*CAP
1 clk 0.00151943
2 *278:A 0.00151943
3 *278:A count[2] 3.19385e-05
4 *278:A count[3] 0
5 *278:A *224:B 0
6 *278:A *242:A1 7.25104e-05
7 *278:A *242:A2 0.000158053
8 *278:A *272:RESET_B 0
9 *278:A *286:A 7.60209e-05
10 *278:A *291:A 0
11 *278:A *36:63 0
12 *278:A *94:64 0
13 *278:A *94:79 0
*RES
1 clk *278:A 26.5157 
*END

*D_NET *4 0.000864166
*CONN
*P count[0] O
*I *297:X O *D sky130_fd_sc_hd__buf_2
*CAP
1 count[0] 0.000315078
2 *297:X 0.000315078
3 count[0] *283:A 5.95687e-05
4 count[0] *287:A 3.15196e-05
5 count[0] *297:A 3.454e-05
6 count[0] *83:94 0.000108383
*RES
1 *297:X count[0] 19.0183 
*END

*D_NET *5 0.00178175
*CONN
*P count[1] O
*I *298:X O *D sky130_fd_sc_hd__buf_2
*CAP
1 count[1] 0.000627701
2 *298:X 0.000627701
3 count[1] *227:A2 0.000223885
4 count[1] *233:B1 8.74426e-05
5 count[1] *271:D 5.65955e-05
6 count[1] *289:A 0.000158423
*RES
1 *298:X count[1] 26.9607 
*END

*D_NET *6 0.000636125
*CONN
*P count[2] O
*I *299:X O *D sky130_fd_sc_hd__buf_2
*CAP
1 count[2] 0.000302093
2 *299:X 0.000302093
3 *278:A count[2] 3.19385e-05
*RES
1 *299:X count[2] 20.891 
*END

*D_NET *7 0.000814094
*CONN
*P count[3] O
*I *300:X O *D sky130_fd_sc_hd__buf_2
*CAP
1 count[3] 0.000266851
2 *300:X 0.000266851
3 count[3] *239:A1 2.06178e-05
4 count[3] *286:A 7.34412e-05
5 count[3] *291:A 8.41435e-05
6 count[3] *88:18 0.00010219
7 *278:A count[3] 0
*RES
1 *300:X count[3] 20.6235 
*END

*D_NET *8 0.00047019
*CONN
*P count[4] O
*I *301:X O *D sky130_fd_sc_hd__buf_2
*CAP
1 count[4] 0.00015258
2 *301:X 0.00015258
3 count[4] count[5] 0
4 count[4] *292:A 0
5 count[4] *293:A 7.60209e-05
6 count[4] *296:A 6.6313e-05
7 count[4] *83:34 2.26973e-05
*RES
1 *301:X count[4] 18.1229 
*END

*D_NET *9 0.000533394
*CONN
*P count[5] O
*I *302:X O *D sky130_fd_sc_hd__buf_2
*CAP
1 count[5] 0.000213039
2 *302:X 0.000213039
3 count[5] *293:A 7.3448e-05
4 count[5] *302:A 3.38674e-05
5 count[4] count[5] 0
*RES
1 *302:X count[5] 18.73 
*END

*D_NET *10 0.000962132
*CONN
*P count[6] O
*I *303:X O *D sky130_fd_sc_hd__clkbuf_4
*CAP
1 count[6] 0.000481066
2 *303:X 0.000481066
3 count[6] *294:A 0
*RES
1 *303:X count[6] 23.4786 
*END

*D_NET *11 0.000544555
*CONN
*P count[7] O
*I *304:X O *D sky130_fd_sc_hd__buf_2
*CAP
1 count[7] 0.000250439
2 *304:X 0.000250439
3 count[7] *288:A 0
4 count[7] *295:A 2.87684e-05
5 count[7] *93:21 1.49084e-05
*RES
1 *304:X count[7] 18.4985 
*END

*D_NET *12 0.0014235
*CONN
*P data[0] I
*I *285:A I *D sky130_fd_sc_hd__clkbuf_1
*CAP
1 data[0] 0.000627212
2 *285:A 0.000627212
3 *285:A *221:A1 1.88048e-05
4 *285:A *221:B1 5.41794e-05
5 *285:A *221:B2 9.60939e-05
*RES
1 data[0] *285:A 27.1571 
*END

*D_NET *13 0.00160425
*CONN
*P data[1] I
*I *289:A I *D sky130_fd_sc_hd__clkbuf_1
*CAP
1 data[1] 0.000553773
2 *289:A 0.000553773
3 *289:A *227:A2 3.30352e-05
4 *289:A *228:A1 0.000254059
5 *289:A *228:A2 3.27461e-05
6 *289:A *228:B1 1.84368e-05
7 count[1] *289:A 0.000158423
*RES
1 data[1] *289:A 26.2286 
*END

*D_NET *14 0.00102658
*CONN
*P data[2] I
*I *290:A I *D sky130_fd_sc_hd__clkbuf_1
*CAP
1 data[2] 0.000461921
2 *290:A 0.000461921
3 *290:A *233:A2 3.69047e-06
4 *290:A *233:B1 9.90431e-05
*RES
1 data[2] *290:A 23.0321 
*END

*D_NET *15 0.0027101
*CONN
*P data[3] I
*I *291:A I *D sky130_fd_sc_hd__clkbuf_1
*CAP
1 data[3] 0.00102144
2 *291:A 0.00102144
3 *291:A *263:A1 0
4 *291:A *272:CLK 0.000110844
5 *291:A *288:A 8.57347e-05
6 *291:A *36:63 0.000200413
7 *291:A *79:23 6.19181e-05
8 *291:A *79:47 0.000124169
9 count[3] *291:A 8.41435e-05
10 *278:A *291:A 0
*RES
1 data[3] *291:A 26.4022 
*END

*D_NET *16 0.000763115
*CONN
*P data[4] I
*I *292:A I *D sky130_fd_sc_hd__clkbuf_1
*CAP
1 data[4] 0.000269833
2 *292:A 0.000269833
3 *292:A *283:A 0
4 *292:A *296:A 7.60209e-05
5 *292:A *35:16 7.35913e-05
6 *292:A *83:34 7.38368e-05
7 count[4] *292:A 0
*RES
1 data[4] *292:A 19.7848 
*END

*D_NET *17 0.000432192
*CONN
*P data[5] I
*I *293:A I *D sky130_fd_sc_hd__clkbuf_1
*CAP
1 data[5] 0.000127881
2 *293:A 0.000127881
3 *293:A *83:34 2.69614e-05
4 count[4] *293:A 7.60209e-05
5 count[5] *293:A 7.3448e-05
*RES
1 data[5] *293:A 18.3544 
*END

*D_NET *18 0.00146741
*CONN
*P data[6] I
*I *294:A I *D sky130_fd_sc_hd__clkbuf_1
*CAP
1 data[6] 0.000603512
2 *294:A 0.000603512
3 *294:A *258:B 0.000144773
4 *294:A *259:B1_N 1.69961e-05
5 *294:A *84:40 9.8621e-05
6 count[6] *294:A 0
*RES
1 data[6] *294:A 26.0143 
*END

*D_NET *19 0.000639325
*CONN
*P data[7] I
*I *295:A I *D sky130_fd_sc_hd__clkbuf_1
*CAP
1 data[7] 0.000293981
2 *295:A 0.000293981
3 *295:A *288:A 2.25951e-05
4 *295:A *93:21 0
5 count[7] *295:A 2.87684e-05
*RES
1 data[7] *295:A 21.0874 
*END

*D_NET *20 0.000603752
*CONN
*P enable I
*I *296:A I *D sky130_fd_sc_hd__clkbuf_1
*CAP
1 enable 0.000171998
2 *296:A 0.000171998
3 *296:A *83:34 0.000117421
4 count[4] *296:A 6.6313e-05
5 *292:A *296:A 7.60209e-05
*RES
1 enable *296:A 19.2651 
*END

*D_NET *21 0.00155286
*CONN
*P preload I
*I *286:A I *D sky130_fd_sc_hd__buf_2
*CAP
1 preload 0.000363296
2 *286:A 0.000363296
3 *286:A *235:A 2.26995e-05
4 *286:A *241:A1 9.60939e-05
5 *286:A *241:A2 0.000361407
6 *286:A *282:A 9.90367e-05
7 *286:A *94:19 9.75712e-05
8 count[3] *286:A 7.34412e-05
9 *278:A *286:A 7.60209e-05
*RES
1 preload *286:A 24.6758 
*END

*D_NET *22 0.00137245
*CONN
*P resetn I
*I *283:A I *D sky130_fd_sc_hd__dlygate4sd3_1
*CAP
1 resetn 0.000497363
2 *283:A 0.000497363
3 *283:A *217:A 9.90367e-05
4 *283:A *222:A1 0.000116049
5 *283:A *287:A 7.84156e-05
6 *283:A *83:18 2.46553e-05
7 count[0] *283:A 5.95687e-05
8 *292:A *283:A 0
*RES
1 resetn *283:A 24.9787 
*END

*D_NET *23 0.000678695
*CONN
*P up_down I
*I *288:A I *D sky130_fd_sc_hd__buf_1
*CAP
1 up_down 0.000285183
2 *288:A 0.000285183
3 *288:A *240:B1 0
4 *288:A *93:10 0
5 count[7] *288:A 0
6 *291:A *288:A 8.57347e-05
7 *295:A *288:A 2.25951e-05
*RES
1 up_down *288:A 20.2479 
*END

*D_NET *24 0.000497793
*CONN
*I *270:D I *D sky130_fd_sc_hd__dfrtp_1
*I *222:Y O *D sky130_fd_sc_hd__a21oi_1
*CAP
1 *270:D 0.000162477
2 *222:Y 0.000162477
3 *270:D *217:A 4.34983e-05
4 *270:D *222:A1 9.90367e-05
5 *270:D *80:14 3.0305e-05
*RES
1 *222:Y *270:D 30.2696 
*END

*D_NET *25 0.000346343
*CONN
*I *271:D I *D sky130_fd_sc_hd__dfrtp_1
*I *228:X O *D sky130_fd_sc_hd__a21o_1
*CAP
1 *271:D 0.000134987
2 *228:X 0.000134987
3 *271:D *228:B1 1.9774e-05
4 count[1] *271:D 5.65955e-05
*RES
1 *228:X *271:D 29.7786 
*END

*D_NET *26 0.000732869
*CONN
*I *272:D I *D sky130_fd_sc_hd__dfrtp_2
*I *234:X O *D sky130_fd_sc_hd__a31o_1
*CAP
1 *272:D 0.000257169
2 *234:X 0.000257169
3 *272:D *234:A1 1.21258e-05
4 *272:D *234:A3 3.67142e-05
5 *272:D *234:B1 5.32271e-05
6 *272:D *272:CLK 0.000100474
7 *272:D *82:55 1.59885e-05
*RES
1 *234:X *272:D 31.725 
*END

*D_NET *27 0.000446622
*CONN
*I *273:D I *D sky130_fd_sc_hd__dfrtp_1
*I *240:X O *D sky130_fd_sc_hd__a221o_1
*CAP
1 *273:D 0.000159519
2 *240:X 0.000159519
3 *273:D *240:A2 0.000124515
4 *273:D *88:8 3.06878e-06
*RES
1 *240:X *273:D 20.7964 
*END

*D_NET *28 0.00094631
*CONN
*I *274:D I *D sky130_fd_sc_hd__dfrtp_1
*I *249:X O *D sky130_fd_sc_hd__a31o_1
*CAP
1 *274:D 0.000256602
2 *249:X 0.000256602
3 *274:D *36:31 0.000295123
4 *274:D *82:114 0
5 *274:D *89:18 0.000137983
*RES
1 *249:X *274:D 32.725 
*END

*D_NET *29 0.000203939
*CONN
*I *275:D I *D sky130_fd_sc_hd__dfrtp_1
*I *255:X O *D sky130_fd_sc_hd__a31o_1
*CAP
1 *275:D 7.9564e-05
2 *255:X 7.9564e-05
3 *275:D *275:CLK 4.48113e-05
*RES
1 *255:X *275:D 29.2429 
*END

*D_NET *30 0.00168263
*CONN
*I *276:D I *D sky130_fd_sc_hd__dfrtp_1
*I *264:X O *D sky130_fd_sc_hd__a31o_1
*CAP
1 *276:D 0.000388494
2 *264:X 0.000388494
3 *276:D *263:A1 0.000123949
4 *276:D *264:A2 7.83659e-05
5 *276:D *276:RESET_B 2.51837e-05
6 *276:D *35:91 0.000341564
7 *276:D *91:10 0.00033658
*RES
1 *264:X *276:D 37.85 
*END

*D_NET *31 0.00117304
*CONN
*I *277:D I *D sky130_fd_sc_hd__dfrtp_1
*I *269:X O *D sky130_fd_sc_hd__a21o_1
*CAP
1 *277:D 0.000382019
2 *269:X 0.000382019
3 *277:D *263:A1 1.94945e-05
4 *277:D *268:A2 0.000128146
5 *277:D *269:B1 8.00806e-05
6 *277:D *277:CLK 8.64516e-06
7 *277:D *277:RESET_B 5.75351e-05
8 *277:D *282:A 1.53472e-05
9 *277:D *36:71 0
10 *277:D *82:16 9.97552e-05
*RES
1 *269:X *277:D 34.1179 
*END

*D_NET *32 0.0028543
*CONN
*I *221:B2 I *D sky130_fd_sc_hd__a22o_1
*I *229:A2 I *D sky130_fd_sc_hd__o21a_1
*I *226:A1 I *D sky130_fd_sc_hd__o21a_1
*I *225:A I *D sky130_fd_sc_hd__nand2_1
*I *216:Y O *D sky130_fd_sc_hd__inv_2
*CAP
1 *221:B2 0.000362099
2 *229:A2 0.000231871
3 *226:A1 0
4 *225:A 9.96391e-05
5 *216:Y 0
6 *32:12 9.96391e-05
7 *32:10 0.000469006
8 *32:4 0.000599233
9 *221:B2 *221:A1 2.54632e-05
10 *221:B2 *221:A2 0.000310688
11 *221:B2 *221:B1 5.33005e-05
12 *221:B2 *228:A1 0.0001055
13 *225:A *217:A 3.99614e-06
14 *225:A *226:B1 3.99614e-06
15 *225:A *36:46 5.41609e-05
16 *229:A2 *225:B 8.07879e-05
17 *229:A2 *229:A1 2.27416e-05
18 *32:10 *222:B1 0
19 *32:10 *225:B 1.02504e-05
20 *32:10 *228:A1 3.92854e-05
21 *32:10 *271:CLK 0.00018372
22 *32:10 *80:14 0
23 *32:10 *86:30 2.8266e-06
24 *285:A *221:B2 9.60939e-05
*RES
1 *216:Y *32:4 9.3 
2 *32:4 *32:10 7.91071 
3 *32:10 *32:12 4.5 
4 *32:12 *225:A 11.5143 
5 *32:12 *226:A1 9.3 
6 *32:10 *229:A2 17.1036 
7 *32:4 *221:B2 25.8357 
*END

*D_NET *33 0.00105408
*CONN
*I *221:A2 I *D sky130_fd_sc_hd__a22o_1
*I *217:Y O *D sky130_fd_sc_hd__inv_2
*CAP
1 *221:A2 0.000246888
2 *217:Y 0.000246888
3 *221:A2 *221:A1 7.99488e-05
4 *221:A2 *222:B1 0.00012898
5 *221:A2 *228:A1 4.06875e-05
6 *221:B2 *221:A2 0.000310688
*RES
1 *217:Y *221:A2 33.7429 
*END

*D_NET *34 0.000438752
*CONN
*I *237:A2 I *D sky130_fd_sc_hd__o21ai_1
*I *218:Y O *D sky130_fd_sc_hd__inv_2
*CAP
1 *237:A2 8.33735e-05
2 *218:Y 8.33735e-05
3 *237:A2 *237:B1 1.41029e-05
4 *237:A2 *241:A1 0.000132171
5 *237:A2 *94:25 0.000125731
*RES
1 *218:Y *237:A2 29.7786 
*END

*D_NET *35 0.0152497
*CONN
*I *263:B1 I *D sky130_fd_sc_hd__a22o_1
*I *268:B1 I *D sky130_fd_sc_hd__a22o_1
*I *240:B1 I *D sky130_fd_sc_hd__a221o_1
*I *254:B1 I *D sky130_fd_sc_hd__a22o_1
*I *248:B1 I *D sky130_fd_sc_hd__a22o_1
*I *221:B1 I *D sky130_fd_sc_hd__a22o_1
*I *227:B1 I *D sky130_fd_sc_hd__a22o_1
*I *233:B1 I *D sky130_fd_sc_hd__a22o_1
*I *219:Y O *D sky130_fd_sc_hd__nor2_2
*CAP
1 *263:B1 7.72356e-05
2 *268:B1 2.98312e-05
3 *240:B1 0.000203823
4 *254:B1 0
5 *248:B1 7.83824e-05
6 *221:B1 0.000187977
7 *227:B1 2.60931e-05
8 *233:B1 0.00117845
9 *219:Y 0.000105801
10 *35:91 0.00136313
11 *35:87 0.00224326
12 *35:74 0.00115981
13 *35:26 0.0013768
14 *35:16 0.000995438
15 *35:10 0.000799783
16 *35:8 0.000315261
17 *221:B1 *217:A 6.42242e-05
18 *221:B1 *221:A1 0
19 *221:B1 *297:A 0
20 *227:B1 *227:A1 3.6045e-05
21 *227:B1 *271:CLK 5.71472e-05
22 *227:B1 *82:95 1.02821e-05
23 *233:B1 *228:A1 0.000255718
24 *233:B1 *233:A1 3.18676e-05
25 *233:B1 *233:A2 5.26059e-05
26 *233:B1 *298:A 9.6732e-05
27 *240:B1 *240:A2 0
28 *240:B1 *240:B2 7.13486e-05
29 *240:B1 *282:A 0.000272658
30 *240:B1 *88:14 1.48716e-05
31 *240:B1 *93:10 3.92854e-05
32 *248:B1 *248:A2 7.32173e-05
33 *263:B1 *259:B1_N 0
34 *263:B1 *263:A1 6.72248e-05
35 *263:B1 *83:70 2.81103e-05
36 *268:B1 *282:A 8.32242e-05
37 *268:B1 *93:10 4.23086e-05
38 *268:B1 *93:21 5.80706e-06
39 *35:8 *220:B 0.000139907
40 *35:10 *254:A1 5.58941e-05
41 *35:10 *301:A 0.000188748
42 *35:10 *83:34 0
43 *35:10 *104:10 4.06875e-05
44 *35:16 *216:A 0.000127279
45 *35:16 *284:A 1.91512e-05
46 *35:16 *287:A 7.01788e-05
47 *35:16 *297:A 3.7671e-05
48 *35:16 *301:A 3.34295e-05
49 *35:16 *82:114 0.000137515
50 *35:16 *83:18 0
51 *35:16 *83:34 0
52 *35:16 *85:8 2.95726e-05
53 *35:16 *89:10 0.000270943
54 *35:16 *89:51 8.08022e-05
55 *35:26 *216:A 6.33704e-05
56 *35:26 *227:A1 0
57 *35:26 *271:CLK 0.000291606
58 *35:26 *82:95 0.000332288
59 *35:26 *82:114 0.00012556
60 *35:74 *254:A1 0.000315179
61 *35:74 *255:A1 0
62 *35:74 *301:A 0.000167691
63 *35:87 *254:A1 3.34295e-05
64 *35:87 *255:A1 0
65 *35:87 *83:52 0.000233418
66 *35:87 *90:10 7.4826e-05
67 *35:91 *263:B2 2.23592e-05
68 *35:91 *268:A1 5.33005e-05
69 *35:91 *276:CLK 7.77751e-05
70 *35:91 *276:RESET_B 8.57166e-06
71 *35:91 *83:52 3.63249e-05
72 *35:91 *84:12 9.33978e-07
73 *35:91 *91:10 2.84026e-05
74 count[1] *233:B1 8.74426e-05
75 *221:B2 *221:B1 5.33005e-05
76 *276:D *35:91 0.000341564
77 *285:A *221:B1 5.41794e-05
78 *288:A *240:B1 0
79 *290:A *233:B1 9.90431e-05
80 *292:A *35:16 7.35913e-05
*RES
1 *219:Y *35:8 15.5679 
2 *35:8 *35:10 2.55357 
3 *35:10 *35:16 19.1786 
4 *35:16 *35:26 6.57143 
5 *35:26 *233:B1 34.3357 
6 *35:26 *227:B1 10.2643 
7 *35:16 *221:B1 21.6929 
8 *35:10 *248:B1 15.1571 
9 *35:8 *35:74 4.07143 
10 *35:74 *254:B1 13.8 
11 *35:74 *35:87 18.375 
12 *35:87 *35:91 19 
13 *35:91 *240:B1 18.6393 
14 *35:91 *268:B1 14.8357 
15 *35:87 *263:B1 19.6393 
*END

*D_NET *36 0.0108259
*CONN
*I *249:A1 I *D sky130_fd_sc_hd__a31o_1
*I *226:B1 I *D sky130_fd_sc_hd__o21a_1
*I *238:B1 I *D sky130_fd_sc_hd__o21ai_1
*I *264:A1 I *D sky130_fd_sc_hd__a31o_1
*I *269:A1 I *D sky130_fd_sc_hd__a21o_1
*I *234:A1 I *D sky130_fd_sc_hd__a31o_1
*I *222:A2 I *D sky130_fd_sc_hd__a21oi_1
*I *255:A1 I *D sky130_fd_sc_hd__a31o_1
*I *220:X O *D sky130_fd_sc_hd__and2b_2
*CAP
1 *249:A1 2.23854e-05
2 *226:B1 2.06112e-05
3 *238:B1 0
4 *264:A1 0.000819877
5 *269:A1 3.69486e-05
6 *234:A1 6.41344e-05
7 *222:A2 3.63412e-05
8 *255:A1 0.000340536
9 *220:X 5.05799e-05
10 *36:71 0.00134557
11 *36:63 0.00090802
12 *36:48 0.00109121
13 *36:46 0.000916582
14 *36:31 0.000624704
15 *36:25 0.000473553
16 *36:8 0.00054209
17 *222:A2 *217:A 0
18 *222:A2 *80:14 2.84398e-05
19 *222:A2 *82:114 0
20 *234:A1 *234:B1 0.00010096
21 *249:A1 *248:A2 0
22 *255:A1 *249:A2 0
23 *255:A1 *275:CLK 0
24 *255:A1 *301:A 0
25 *255:A1 *82:127 1.00375e-05
26 *264:A1 *261:A 6.40593e-05
27 *264:A1 *261:B 0.000138605
28 *264:A1 *264:A3 4.22135e-06
29 *264:A1 *264:B1 0
30 *264:A1 *265:A2 0.000230685
31 *264:A1 *91:10 5.79582e-06
32 *36:25 *249:A2 0
33 *36:25 *249:B1 4.01768e-05
34 *36:25 *82:127 5.10822e-05
35 *36:25 *89:18 2.24763e-05
36 *36:31 *249:A2 3.34295e-05
37 *36:31 *249:A3 6.05161e-06
38 *36:31 *275:CLK 0.00015642
39 *36:31 *80:10 6.74815e-05
40 *36:31 *80:14 9.12446e-05
41 *36:31 *82:114 0
42 *36:31 *89:18 3.30352e-05
43 *36:46 *217:A 0.00018372
44 *36:46 *225:B 8.27532e-05
45 *36:46 *39:14 0.00010096
46 *36:48 *228:A2 1.83053e-05
47 *36:48 *234:B1 4.18895e-05
48 *36:48 *39:14 2.44318e-05
49 *36:63 *236:A 9.60875e-05
50 *36:63 *238:A2 4.87854e-05
51 *36:63 *242:A1 0
52 *36:63 *242:A2 0
53 *36:63 *272:CLK 0.000115296
54 *36:63 *281:A 9.41642e-05
55 *36:63 *43:24 0.000146316
56 *36:63 *48:23 1.5424e-05
57 *36:71 *239:B1 3.25078e-05
58 *36:71 *240:A2 0.000429654
59 *36:71 *269:B1 0
60 *36:71 *273:CLK 0.00024729
61 *36:71 *276:CLK 8.06716e-05
62 *36:71 *79:47 8.47107e-05
63 *36:71 *82:12 3.9768e-05
64 *36:71 *82:16 0
65 *225:A *226:B1 3.99614e-06
66 *225:A *36:46 5.41609e-05
67 *272:D *234:A1 1.21258e-05
68 *274:D *36:31 0.000295123
69 *277:D *36:71 0
70 *278:A *36:63 0
71 *291:A *36:63 0.000200413
72 *35:74 *255:A1 0
73 *35:87 *255:A1 0
*RES
1 *220:X *36:8 14.3357 
2 *36:8 *255:A1 19.925 
3 *36:8 *36:25 7.60714 
4 *36:25 *36:31 12.8571 
5 *36:31 *222:A2 14.5321 
6 *36:31 *36:46 10.3929 
7 *36:46 *36:48 10.3929 
8 *36:48 *234:A1 10.6571 
9 *36:48 *36:63 18.2857 
10 *36:63 *36:71 21.0893 
11 *36:71 *269:A1 9.83571 
12 *36:71 *264:A1 31.9607 
13 *36:63 *238:B1 9.3 
14 *36:46 *226:B1 9.72857 
15 *36:25 *249:A1 9.72857 
*END

*D_NET *37 0.000663011
*CONN
*I *222:B1 I *D sky130_fd_sc_hd__a21oi_1
*I *221:X O *D sky130_fd_sc_hd__a22o_1
*CAP
1 *222:B1 0.000153122
2 *221:X 0.000153122
3 *222:B1 *217:A 0
4 *222:B1 *221:A1 7.83587e-05
5 *222:B1 *80:14 0.000149428
6 *221:A2 *222:B1 0.00012898
7 *32:10 *222:B1 0
*RES
1 *221:X *222:B1 31.3679 
*END

*D_NET *38 0.000787618
*CONN
*I *229:B1 I *D sky130_fd_sc_hd__o21a_1
*I *223:Y O *D sky130_fd_sc_hd__nand2b_1
*CAP
1 *229:B1 0.000229767
2 *223:Y 0.000229767
3 *229:B1 *223:B 7.57312e-05
4 *229:B1 *229:A1 5.982e-05
5 *229:B1 *39:6 0.000143375
6 *229:B1 *43:12 3.76309e-05
7 *229:B1 *94:53 1.15281e-05
*RES
1 *223:Y *229:B1 23.5643 
*END

*D_NET *39 0.00151695
*CONN
*I *229:A1 I *D sky130_fd_sc_hd__o21a_1
*I *225:B I *D sky130_fd_sc_hd__nand2_1
*I *226:A2 I *D sky130_fd_sc_hd__o21a_1
*I *224:X O *D sky130_fd_sc_hd__xor2_1
*CAP
1 *229:A1 8.74066e-05
2 *225:B 0.000116553
3 *226:A2 0
4 *224:X 0.000127339
5 *39:14 0.00028117
6 *39:6 0.000379364
7 *225:B *80:14 0
8 *39:14 *86:12 0
9 *229:A2 *225:B 8.07879e-05
10 *229:A2 *229:A1 2.27416e-05
11 *229:B1 *229:A1 5.982e-05
12 *229:B1 *39:6 0.000143375
13 *32:10 *225:B 1.02504e-05
14 *36:46 *225:B 8.27532e-05
15 *36:46 *39:14 0.00010096
16 *36:48 *39:14 2.44318e-05
*RES
1 *224:X *39:6 11.0679 
2 *39:6 *39:14 11.3929 
3 *39:14 *226:A2 9.3 
4 *39:14 *225:B 20.2821 
5 *39:6 *229:A1 11.2821 
*END

*D_NET *40 0.00131313
*CONN
*I *228:A1 I *D sky130_fd_sc_hd__a21o_1
*I *225:Y O *D sky130_fd_sc_hd__nand2_1
*CAP
1 *228:A1 0.000304142
2 *225:Y 0.000304142
3 *228:A1 *227:B2 9.59532e-06
4 *228:A1 *298:A 0
5 *228:A1 *86:30 0
6 *221:A2 *228:A1 4.06875e-05
7 *221:B2 *228:A1 0.0001055
8 *233:B1 *228:A1 0.000255718
9 *289:A *228:A1 0.000254059
10 *32:10 *228:A1 3.92854e-05
*RES
1 *225:Y *228:A1 35.2786 
*END

*D_NET *41 0.000908556
*CONN
*I *228:A2 I *D sky130_fd_sc_hd__a21o_1
*I *226:X O *D sky130_fd_sc_hd__o21a_1
*CAP
1 *228:A2 0.000261545
2 *226:X 0.000261545
3 *228:A2 *227:A2 6.62065e-05
4 *228:A2 *228:B1 1.07319e-05
5 *228:A2 *298:A 0.000224978
6 *228:A2 *86:12 0
7 *228:A2 *86:30 3.24989e-05
8 *289:A *228:A2 3.27461e-05
9 *36:48 *228:A2 1.83053e-05
*RES
1 *226:X *228:A2 32.5107 
*END

*D_NET *42 0.000446199
*CONN
*I *228:B1 I *D sky130_fd_sc_hd__a21o_1
*I *227:X O *D sky130_fd_sc_hd__a22o_1
*CAP
1 *228:B1 0.000133479
2 *227:X 0.000133479
3 *228:B1 *227:A2 7.6997e-05
4 *228:B1 *82:82 5.33005e-05
5 *228:A2 *228:B1 1.07319e-05
6 *271:D *228:B1 1.9774e-05
7 *289:A *228:B1 1.84368e-05
*RES
1 *227:X *228:B1 30.0821 
*END

*D_NET *43 0.00271823
*CONN
*I *242:A3 I *D sky130_fd_sc_hd__o31ai_4
*I *231:A I *D sky130_fd_sc_hd__nand2_1
*I *232:A I *D sky130_fd_sc_hd__or2_1
*I *229:X O *D sky130_fd_sc_hd__o21a_1
*CAP
1 *242:A3 0
2 *231:A 0
3 *232:A 3.21835e-05
4 *229:X 0.000209597
5 *43:24 0.000373699
6 *43:12 0.000551113
7 *232:A *44:10 9.90431e-05
8 *232:A *44:19 4.18895e-05
9 *232:A *94:38 7.48091e-05
10 *43:12 *224:B 9.25014e-06
11 *43:12 *94:64 0.000123295
12 *43:24 *241:A2 2.89114e-05
13 *43:24 *241:B1_N 0.000106187
14 *43:24 *242:A2 0.000139208
15 *43:24 *242:B1 0.000668935
16 *43:24 *44:19 5.33005e-05
17 *43:24 *94:38 2.28598e-05
18 *229:B1 *43:12 3.76309e-05
19 *36:63 *43:24 0.000146316
*RES
1 *229:X *43:12 21.3 
2 *43:12 *43:24 19.0179 
3 *43:24 *232:A 10.6571 
4 *43:24 *231:A 9.3 
5 *43:12 *242:A3 9.3 
*END

*D_NET *44 0.00245802
*CONN
*I *242:A2 I *D sky130_fd_sc_hd__o31ai_4
*I *231:B I *D sky130_fd_sc_hd__nand2_1
*I *232:B I *D sky130_fd_sc_hd__or2_1
*I *230:X O *D sky130_fd_sc_hd__xor2_1
*CAP
1 *242:A2 0.000256427
2 *231:B 0
3 *232:B 0
4 *230:X 0.000200081
5 *44:19 0.000349443
6 *44:10 0.000293097
7 *242:A2 *241:B1_N 4.63768e-05
8 *242:A2 *242:A1 1.02504e-05
9 *242:A2 *94:38 0.000154027
10 *44:10 *230:A 9.90367e-05
11 *44:10 *241:A1 0.000128496
12 *44:10 *46:8 5.06983e-05
13 *44:10 *87:41 5.71472e-05
14 *44:10 *94:38 0.000309315
15 *44:19 *94:38 1.21289e-05
16 *232:A *44:10 9.90431e-05
17 *232:A *44:19 4.18895e-05
18 *278:A *242:A2 0.000158053
19 *36:63 *242:A2 0
20 *43:24 *242:A2 0.000139208
21 *43:24 *44:19 5.33005e-05
*RES
1 *230:X *44:10 15.2107 
2 *44:10 *232:B 9.3 
3 *44:10 *44:19 1.78571 
4 *44:19 *231:B 9.3 
5 *44:19 *242:A2 24.4964 
*END

*D_NET *45 0.000872528
*CONN
*I *234:A2 I *D sky130_fd_sc_hd__a31o_1
*I *231:Y O *D sky130_fd_sc_hd__nand2_1
*CAP
1 *234:A2 0.000195815
2 *231:Y 0.000195815
3 *234:A2 *272:CLK 0.000128146
4 *234:A2 *82:55 0.000128161
5 *234:A2 *94:38 0.00022459
*RES
1 *231:Y *234:A2 31.4214 
*END

*D_NET *46 0.00119631
*CONN
*I *237:B1 I *D sky130_fd_sc_hd__o21ai_1
*I *234:A3 I *D sky130_fd_sc_hd__a31o_1
*I *232:X O *D sky130_fd_sc_hd__or2_1
*CAP
1 *237:B1 8.20127e-05
2 *234:A3 0.000213119
3 *232:X 0.000106229
4 *46:8 0.000401361
5 *234:A3 *241:A1 5.54856e-05
6 *234:A3 *82:55 8.10589e-05
7 *234:A3 *87:32 0
8 *234:A3 *94:25 1.30731e-05
9 *237:B1 *241:A1 9.30093e-05
10 *237:B1 *82:55 4.94455e-05
11 *237:A2 *237:B1 1.41029e-05
12 *272:D *234:A3 3.67142e-05
13 *44:10 *46:8 5.06983e-05
*RES
1 *232:X *46:8 15.1571 
2 *46:8 *234:A3 18.3179 
3 *46:8 *237:B1 15.7464 
*END

*D_NET *47 0.000804465
*CONN
*I *234:B1 I *D sky130_fd_sc_hd__a31o_1
*I *233:X O *D sky130_fd_sc_hd__a22o_1
*CAP
1 *234:B1 0.000304194
2 *233:X 0.000304194
3 *234:B1 *233:A1 0
4 *234:B1 *272:CLK 0
5 *234:B1 *82:55 0
6 *234:A1 *234:B1 0.00010096
7 *272:D *234:B1 5.32271e-05
8 *36:48 *234:B1 4.18895e-05
*RES
1 *233:X *234:B1 33.0286 
*END

*D_NET *48 0.00173759
*CONN
*I *236:A I *D sky130_fd_sc_hd__inv_2
*I *238:A1 I *D sky130_fd_sc_hd__o21ai_1
*I *239:A1 I *D sky130_fd_sc_hd__a21oi_1
*I *235:Y O *D sky130_fd_sc_hd__xnor2_1
*CAP
1 *236:A 6.87686e-05
2 *238:A1 0
3 *239:A1 0.000205131
4 *235:Y 0
5 *48:23 0.000355741
6 *48:4 0.000492103
7 *239:A1 *88:18 7.83659e-05
8 *48:23 *239:B1 9.90367e-05
9 *48:23 *281:A 0.000306311
10 count[3] *239:A1 2.06178e-05
11 *36:63 *236:A 9.60875e-05
12 *36:63 *48:23 1.5424e-05
*RES
1 *235:Y *48:4 9.3 
2 *48:4 *239:A1 21.1036 
3 *48:4 *48:23 5.5 
4 *48:23 *238:A1 9.3 
5 *48:23 *236:A 10.6571 
*END

*D_NET *49 0.000640349
*CONN
*I *242:A1 I *D sky130_fd_sc_hd__o31ai_4
*I *236:Y O *D sky130_fd_sc_hd__inv_2
*CAP
1 *242:A1 0.000278794
2 *236:Y 0.000278794
3 *242:A2 *242:A1 1.02504e-05
4 *278:A *242:A1 7.25104e-05
5 *36:63 *242:A1 0
*RES
1 *236:Y *242:A1 31.725 
*END

*D_NET *50 0.00186508
*CONN
*I *239:A2 I *D sky130_fd_sc_hd__a21oi_1
*I *238:A2 I *D sky130_fd_sc_hd__o21ai_1
*I *237:Y O *D sky130_fd_sc_hd__o21ai_1
*CAP
1 *239:A2 0.000273387
2 *238:A2 0.00020704
3 *237:Y 3.37217e-05
4 *50:8 0.000514149
5 *238:A2 *281:A 6.09804e-05
6 *239:A2 *239:B1 0.000271345
7 *239:A2 *240:C1 2.27416e-05
8 *239:A2 *282:A 8.54625e-05
9 *239:A2 *82:12 0.000241198
10 *50:8 *282:A 2.79092e-05
11 *50:8 *82:12 7.83587e-05
12 *36:63 *238:A2 4.87854e-05
*RES
1 *237:Y *50:8 14.8357 
2 *50:8 *238:A2 16.3893 
3 *50:8 *239:A2 20.7821 
*END

*D_NET *51 0.00119078
*CONN
*I *239:B1 I *D sky130_fd_sc_hd__a21oi_1
*I *238:Y O *D sky130_fd_sc_hd__o21ai_1
*CAP
1 *239:B1 0.000280594
2 *238:Y 0.000280594
3 *239:B1 *273:CLK 3.17148e-05
4 *239:B1 *79:6 9.41642e-05
5 *239:B1 *82:12 0.000100823
6 *239:A2 *239:B1 0.000271345
7 *36:71 *239:B1 3.25078e-05
8 *48:23 *239:B1 9.90367e-05
*RES
1 *238:Y *239:B1 33.2964 
*END

*D_NET *52 0.000417995
*CONN
*I *240:C1 I *D sky130_fd_sc_hd__a221o_1
*I *239:Y O *D sky130_fd_sc_hd__a21oi_1
*CAP
1 *240:C1 0.000123255
2 *239:Y 0.000123255
3 *240:C1 *282:A 7.29922e-05
4 *240:C1 *88:18 7.57518e-05
5 *239:A2 *240:C1 2.27416e-05
*RES
1 *239:Y *240:C1 30.0821 
*END

*D_NET *53 0.00183279
*CONN
*I *242:B1 I *D sky130_fd_sc_hd__o31ai_4
*I *241:Y O *D sky130_fd_sc_hd__o21bai_1
*CAP
1 *242:B1 0.00058193
2 *241:Y 0.00058193
3 *43:24 *242:B1 0.000668935
*RES
1 *241:Y *242:B1 26.85 
*END

*D_NET *54 0.00316413
*CONN
*I *246:A I *D sky130_fd_sc_hd__or2_1
*I *260:A1 I *D sky130_fd_sc_hd__a31o_1
*I *251:A1 I *D sky130_fd_sc_hd__a21o_1
*I *247:A I *D sky130_fd_sc_hd__nand2_1
*I *242:Y O *D sky130_fd_sc_hd__o31ai_4
*CAP
1 *246:A 0.000129815
2 *260:A1 0
3 *251:A1 0.000136614
4 *247:A 6.09498e-05
5 *242:Y 0.00021417
6 *54:30 0.000152157
7 *54:19 0.000285592
8 *54:6 0.000401755
9 *246:A *246:B 0.000312169
10 *246:A *260:A3 1.41029e-05
11 *246:A *260:B1 0.000128146
12 *246:A *275:CLK 1.00375e-05
13 *246:A *62:14 4.98872e-05
14 *246:A *90:18 0.000180777
15 *247:A *247:B 0
16 *247:A *280:A 5.71472e-05
17 *247:A *57:19 5.71472e-05
18 *251:A1 *251:A2 0.000140933
19 *251:A1 *251:B1 6.05161e-06
20 *251:A1 *62:14 2.13481e-06
21 *54:6 *280:A 3.14193e-05
22 *54:6 *57:6 0.000185643
23 *54:6 *57:19 0.00014285
24 *54:19 *275:CLK 9.79215e-05
25 *54:19 *57:19 0.000290286
26 *54:30 *246:B 1.02504e-05
27 *54:30 *275:CLK 1.88048e-05
28 *54:30 *57:19 4.73656e-05
*RES
1 *242:Y *54:6 13.5321 
2 *54:6 *247:A 10.9786 
3 *54:6 *54:19 8.26786 
4 *54:19 *251:A1 15.5679 
5 *54:19 *54:30 0.732143 
6 *54:30 *260:A1 13.8 
7 *54:30 *246:A 18.7286 
*END

*D_NET *55 0.00189611
*CONN
*I *251:B1 I *D sky130_fd_sc_hd__a21o_1
*I *245:A I *D sky130_fd_sc_hd__nor2_1
*I *243:X O *D sky130_fd_sc_hd__and2b_1
*CAP
1 *251:B1 0.000314195
2 *245:A 0.000338859
3 *243:X 0
4 *55:4 0.000653053
5 *245:A *245:B 7.8327e-05
6 *245:A *249:A3 1.92905e-05
7 *245:A *259:A1 4.25523e-05
8 *245:A *275:CLK 0
9 *245:A *280:A 9.97242e-06
10 *245:A *57:19 0
11 *245:A *89:18 1.15172e-05
12 *245:A *89:22 2.65105e-05
13 *245:A *94:90 6.05161e-06
14 *245:A *94:103 8.25512e-05
15 *251:B1 *249:A2 6.19181e-05
16 *251:B1 *249:A3 8.87062e-05