*SPEF "ieee 1481-1999"
*DESIGN "counter"
*DATE "12:05:24 Wednesday December 04, 2024"
*VENDOR "The OpenROAD Project"
*PROGRAM "OpenROAD"
*VERSION "b16bda7e82721d10566ff7e2b68f1ff0be9f9e38"
*DESIGN_FLOW "NAME_SCOPE LOCAL" "PIN_CAP NONE"
*DIVIDER /
*DELIMITER :
*BUS_DELIMITER []
*T_UNIT 1 NS
*C_UNIT 1 PF
*R_UNIT 1 OHM
*L_UNIT 1 HENRY

*NAME_MAP
*3 clk
*4 count[0]
*5 count[1]
*6 count[2]
*7 count[3]
*8 count[4]
*9 count[5]
*10 count[6]
*11 count[7]
*12 data[0]
*13 data[1]
*14 data[2]
*15 data[3]
*16 data[4]
*17 data[5]
*18 data[6]
*19 data[7]
*20 enable
*21 preload
*22 resetn
*23 up_down
*24 _000_
*25 _001_
*26 _002_
*27 _003_
*28 _004_
*29 _005_
*30 _006_
*31 _007_
*32 _008_
*33 _009_
*34 _010_
*35 _011_
*36 _012_
*37 _013_
*38 _014_
*39 _015_
*40 _016_
*41 _017_
*42 _018_
*43 _019_
*44 _020_
*45 _021_
*46 _022_
*47 _023_
*48 _024_
*49 _025_
*50 _026_
*51 _027_
*52 _028_
*53 _029_
*54 _030_
*55 _031_
*56 _032_
*57 _033_
*58 _034_
*59 _035_
*60 _036_
*61 _037_
*62 _038_
*63 _039_
*64 _040_
*65 _041_
*66 _042_
*67 _043_
*68 _044_
*69 _045_
*70 _046_
*71 _047_
*72 _048_
*73 _049_
*74 _050_
*75 _051_
*76 _052_
*77 _053_
*78 clknet_0_clk
*79 clknet_1_0__leaf_clk
*80 clknet_1_1__leaf_clk
*81 net1
*82 net10
*83 net11
*84 net12
*85 net13
*86 net14
*87 net15
*88 net16
*89 net17
*90 net18
*91 net19
*92 net2
*93 net20
*94 net21
*95 net22
*96 net23
*97 net24
*98 net25
*99 net26
*100 net27
*101 net28
*102 net3
*103 net33
*104 net34
*105 net4
*106 net5
*107 net6
*108 net7
*109 net8
*110 net9
*111 FILLER_0_0_15
*112 FILLER_0_0_27
*113 FILLER_0_0_3
*114 FILLER_0_0_55
*115 FILLER_0_0_64
*116 FILLER_0_10_14
*117 FILLER_0_10_22
*118 FILLER_0_10_29
*119 FILLER_0_10_33
*120 FILLER_0_10_44
*121 FILLER_0_10_54
*122 FILLER_0_10_6
*123 FILLER_0_10_66
*124 FILLER_0_11_14
*125 FILLER_0_11_23
*126 FILLER_0_11_31
*127 FILLER_0_11_57
*128 FILLER_0_11_69
*129 FILLER_0_11_77
*130 FILLER_0_12_15
*131 FILLER_0_12_27
*132 FILLER_0_12_29
*133 FILLER_0_12_3
*134 FILLER_0_12_35
*135 FILLER_0_12_55
*136 FILLER_0_12_57
*137 FILLER_0_12_69
*138 FILLER_0_12_77
*139 FILLER_0_1_44
*140 FILLER_0_1_55
*141 FILLER_0_1_57
*142 FILLER_0_2_15
*143 FILLER_0_2_24
*144 FILLER_0_2_42
*145 FILLER_0_2_46
*146 FILLER_0_2_7
*147 FILLER_0_2_73
*148 FILLER_0_3_3
*149 FILLER_0_3_35
*150 FILLER_0_3_61
*151 FILLER_0_3_76
*152 FILLER_0_4_18
*153 FILLER_0_4_3
*154 FILLER_0_4_50
*155 FILLER_0_4_56
*156 FILLER_0_5_17
*157 FILLER_0_5_28
*158 FILLER_0_5_34
*159 FILLER_0_5_71
*160 FILLER_0_6_22
*161 FILLER_0_6_29
*162 FILLER_0_6_63
*163 FILLER_0_7_10
*164 FILLER_0_7_14
*165 FILLER_0_7_35
*166 FILLER_0_7_46
*167 FILLER_0_7_55
*168 FILLER_0_7_57
*169 FILLER_0_7_69
*170 FILLER_0_7_73
*171 FILLER_0_8_10
*172 FILLER_0_8_18
*173 FILLER_0_8_26
*174 FILLER_0_8_6
*175 FILLER_0_9_23
*176 FILLER_0_9_29
*177 FILLER_0_9_50
*178 FILLER_0_9_57
*179 PHY_EDGE_ROW_0_Left_13
*180 PHY_EDGE_ROW_0_Right_0
*181 PHY_EDGE_ROW_10_Left_23
*182 PHY_EDGE_ROW_10_Right_10
*183 PHY_EDGE_ROW_11_Left_24
*184 PHY_EDGE_ROW_11_Right_11
*185 PHY_EDGE_ROW_12_Left_25
*186 PHY_EDGE_ROW_12_Right_12
*187 PHY_EDGE_ROW_1_Left_14
*188 PHY_EDGE_ROW_1_Right_1
*189 PHY_EDGE_ROW_2_Left_15
*190 PHY_EDGE_ROW_2_Right_2
*191 PHY_EDGE_ROW_3_Left_16
*192 PHY_EDGE_ROW_3_Right_3
*193 PHY_EDGE_ROW_4_Left_17
*194 PHY_EDGE_ROW_4_Right_4
*195 PHY_EDGE_ROW_5_Left_18
*196 PHY_EDGE_ROW_5_Right_5
*197 PHY_EDGE_ROW_6_Left_19
*198 PHY_EDGE_ROW_6_Right_6
*199 PHY_EDGE_ROW_7_Left_20
*200 PHY_EDGE_ROW_7_Right_7
*201 PHY_EDGE_ROW_8_Left_21
*202 PHY_EDGE_ROW_8_Right_8
*203 PHY_EDGE_ROW_9_Left_22
*204 PHY_EDGE_ROW_9_Right_9
*205 TAP_TAPCELL_ROW_0_26
*206 TAP_TAPCELL_ROW_0_27
*207 TAP_TAPCELL_ROW_10_37
*208 TAP_TAPCELL_ROW_11_38
*209 TAP_TAPCELL_ROW_12_39
*210 TAP_TAPCELL_ROW_12_40
*211 TAP_TAPCELL_ROW_1_28
*212 TAP_TAPCELL_ROW_2_29
*213 TAP_TAPCELL_ROW_3_30
*214 TAP_TAPCELL_ROW_4_31
*215 TAP_TAPCELL_ROW_5_32
*216 TAP_TAPCELL_ROW_6_33
*217 TAP_TAPCELL_ROW_7_34
*218 TAP_TAPCELL_ROW_8_35
*219 TAP_TAPCELL_ROW_9_36
*220 _054_
*221 _055_
*222 _056_
*223 _057_
*224 _058_
*225 _059_
*226 _060_
*227 _061_
*228 _062_
*229 _063_
*230 _064_
*231 _065_
*232 _066_
*233 _067_
*234 _068_
*235 _069_
*236 _070_
*237 _071_
*238 _072_
*239 _073_
*240 _074_
*241 _075_
*242 _076_
*243 _077_
*244 _078_
*245 _079_
*246 _080_
*247 _081_
*248 _082_
*249 _083_
*250 _084_
*251 _085_
*252 _086_
*253 _087_
*254 _088_
*255 _089_
*256 _090_
*257 _091_
*258 _092_
*259 _093_
*260 _094_
*261 _095_
*262 _096_
*263 _097_
*264 _098_
*265 _099_
*266 _100_
*267 _101_
*268 _102_
*269 _103_
*270 _104_
*271 _105_
*272 _106_
*273 _107_
*274 _108_
*275 _109_
*276 _110_
*277 _111_
*278 _112_
*279 _113_
*280 _114_
*281 _115_
*282 clkbuf_0_clk
*283 clkbuf_1_0__f_clk
*284 clkbuf_1_1__f_clk
*285 clkload0
*286 fanout21
*287 hold12
*288 hold13
*289 input1
*290 input10
*291 input11
*292 input12
*293 input2
*294 input3
*295 input4
*296 input5
*297 input6
*298 input7
*299 input8
*300 input9
*301 output13
*302 output14
*303 output15
*304 output16
*305 output17
*306 output18
*307 output19
*308 output20
*309 rebuffer1
*310 rebuffer2
*311 rebuffer3
*312 rebuffer4
*313 rebuffer5
*314 rebuffer6
*315 rebuffer7

*PORTS
clk I
count[0] O
count[1] O
count[2] O
count[3] O
count[4] O
count[5] O
count[6] O
count[7] O
data[0] I
data[1] I
data[2] I
data[3] I
data[4] I
data[5] I
data[6] I
data[7] I
enable I
preload I
resetn I
up_down I

*D_NET *3 0.00391058
*CONN
*P clk I
*I *282:A I *D sky130_fd_sc_hd__clkbuf_16
*CAP
1 clk 0.00187276
2 *282:A 0.00187276
3 *282:A count[2] 3.14094e-05
4 *282:A count[3] 0
5 *282:A *246:A1 0
6 *282:A *249:A 0
7 *282:A *249:B 4.11251e-05
8 *282:A *251:B 2.69789e-05
9 *282:A *253:A3 1.88904e-05
10 *282:A *290:A 4.66616e-05
11 *282:A *54:18 0
12 *282:A *96:10 0
*RES
1 clk *282:A 12.6911 
*END

*D_NET *4 0.00113191
*CONN
*P count[0] O
*I *301:X O *D sky130_fd_sc_hd__buf_2
*CAP
1 count[0] 0.00046302
2 *301:X 0.00046302
3 count[0] *225:A2 6.06593e-05
4 count[0] *287:A 0.000111391
5 count[0] *82:68 3.38178e-05
*RES
1 *301:X count[0] 5.88117 
*END

*D_NET *5 0.00203978
*CONN
*P count[1] O
*I *302:X O *D sky130_fd_sc_hd__buf_2
*CAP
1 count[1] 0.000642871
2 *302:X 0.000642871
3 count[1] *230:B1 4.5606e-05
4 count[1] *231:A2 2.16917e-05
5 count[1] *232:A1 8.11785e-05
6 count[1] *232:B1 0.000267518
7 count[1] *293:A 0.00016031
8 count[1] *302:A 0.000122337
9 count[1] *82:45 5.53955e-05
*RES
1 *302:X count[1] 16.035 
*END

*D_NET *6 0.000590999
*CONN
*P count[2] O
*I *303:X O *D sky130_fd_sc_hd__buf_2
*CAP
1 count[2] 0.000279795
2 *303:X 0.000279795
3 *282:A count[2] 3.14094e-05
*RES
1 *303:X count[2] 7.1793 
*END

*D_NET *7 0.000757152
*CONN
*P count[3] O
*I *304:X O *D sky130_fd_sc_hd__buf_2
*CAP
1 count[3] 0.000294181
2 *304:X 0.000294181
3 count[3] *239:A 2.23342e-05
4 count[3] *286:A 6.5265e-05
5 count[3] *290:A 4.41979e-05
6 count[3] *295:A 3.6993e-05
7 *282:A count[3] 0
*RES
1 *304:X count[3] 6.94503 
*END

*D_NET *8 0.000425322
*CONN
*P count[4] O
*I *305:X O *D sky130_fd_sc_hd__buf_2
*CAP
1 count[4] 0.000141467
2 *305:X 0.000141467
3 count[4] count[5] 0
4 count[4] *296:A 0
5 count[4] *297:A 7.56675e-05
6 count[4] *300:A 6.67215e-05
7 count[4] *305:A 0
*RES
1 *305:X count[4] 4.84677 
*END

*D_NET *9 0.000496546
*CONN
*P count[5] O
*I *306:X O *D sky130_fd_sc_hd__buf_2
*CAP
1 count[5] 0.000194759
2 *306:X 0.000194759
3 count[5] *297:A 7.32103e-05
4 count[5] *306:A 3.38178e-05
5 count[4] count[5] 0
*RES
1 *306:X count[5] 5.35677 
*END

*D_NET *10 0.00160295
*CONN
*P count[6] O
*I *307:X O *D sky130_fd_sc_hd__clkbuf_4
*CAP
1 count[6] 0.000707192
2 *307:X 0.000707192
3 count[6] *269:A1 9.29774e-05
4 count[6] *298:A 9.5585e-05
*RES
1 *307:X count[6] 15.03 
*END

*D_NET *11 0.000517776
*CONN
*P count[7] O
*I *308:X O *D sky130_fd_sc_hd__buf_2
*CAP
1 count[7] 0.000236891
2 *308:X 0.000236891
3 count[7] *299:A 2.85068e-05
4 count[7] *84:23 1.54862e-05
*RES
1 *308:X count[7] 5.16003 
*END

*D_NET *12 0.00241123
*CONN
*P data[0] I
*I *289:A I *D sky130_fd_sc_hd__clkbuf_1
*CAP
1 data[0] 0.000819525
2 *289:A 0.000819525
3 *289:A *225:B2 0
4 *289:A *226:A1 0.000163199
5 *289:A *226:B1 7.53115e-05
6 *289:A *231:B2 0
7 *289:A *274:CLK 0.000139238
8 *289:A *274:D 0.00014896
9 *289:A *278:CLK 0.00013521
10 *289:A *36:32 1.17701e-05
11 *289:A *79:10 9.84957e-05
12 *289:A *82:68 0
*RES
1 data[0] *289:A 19.11 
*END

*D_NET *13 0.00127299
*CONN
*P data[1] I
*I *293:A I *D sky130_fd_sc_hd__clkbuf_1
*CAP
1 data[1] 0.000480097
2 *293:A 0.000480097
3 *293:A *231:A2 9.04142e-05
4 *293:A *231:B2 0
5 *293:A *232:A1 0
6 *293:A *302:A 2.0851e-06
7 *293:A *82:32 5.99929e-05
8 count[1] *293:A 0.00016031
*RES
1 data[1] *293:A 12.555 
*END

*D_NET *14 0.00106306
*CONN
*P data[2] I
*I *294:A I *D sky130_fd_sc_hd__clkbuf_1
*CAP
1 data[2] 0.000474636
2 *294:A 0.000474636
3 *294:A *232:B1 0
4 *294:A *237:A2 5.37074e-05
5 *294:A *238:B1 5.83121e-06
6 *294:A *82:20 0
7 *294:A *82:32 5.42473e-05
*RES
1 data[2] *294:A 11.655 
*END

*D_NET *15 0.000710561
*CONN
*P data[3] I
*I *295:A I *D sky130_fd_sc_hd__clkbuf_1
*CAP
1 data[3] 0.00028621
2 *295:A 0.00028621
3 *295:A *292:A 3.14094e-05
4 *295:A *304:A 6.97377e-05
5 count[3] *295:A 3.6993e-05
*RES
1 data[3] *295:A 8.12543 
*END

*D_NET *16 0.000716514
*CONN
*P data[4] I
*I *296:A I *D sky130_fd_sc_hd__clkbuf_1
*CAP
1 data[4] 0.000281587
2 *296:A 0.000281587
3 *296:A *287:A 0
4 *296:A *300:A 7.98535e-05
5 *296:A *89:10 6.90476e-05
6 *296:A *89:21 4.43871e-06
7 count[4] *296:A 0
*RES
1 data[4] *296:A 6.2383 
*END

*D_NET *17 0.000406378
*CONN
*P data[5] I
*I *297:A I *D sky130_fd_sc_hd__clkbuf_1
*CAP
1 data[5] 0.00012875
2 *297:A 0.00012875
3 *297:A *258:A1 0
4 count[4] *297:A 7.56675e-05
5 count[5] *297:A 7.32103e-05
*RES
1 data[5] *297:A 5.0435 
*END

*D_NET *18 0.00157795
*CONN
*P data[6] I
*I *298:A I *D sky130_fd_sc_hd__clkbuf_1
*CAP
1 data[6] 0.000618093
2 *298:A 0.000618093
3 *298:A *267:A2 3.45679e-05
4 *298:A *269:A1 4.89295e-05
5 *298:A *70:23 0.000162684
6 count[6] *298:A 9.5585e-05
*RES
1 data[6] *298:A 15.345 
*END

*D_NET *19 0.000598604
*CONN
*P data[7] I
*I *299:A I *D sky130_fd_sc_hd__clkbuf_1
*CAP
1 data[7] 0.000273804
2 *299:A 0.000273804
3 *299:A *292:A 2.24901e-05
4 *299:A *84:23 0
5 count[7] *299:A 2.85068e-05
*RES
1 data[7] *299:A 7.3443 
*END

*D_NET *20 0.000517158
*CONN
*P enable I
*I *300:A I *D sky130_fd_sc_hd__clkbuf_1
*CAP
1 enable 0.000168383
2 *300:A 0.000168383
3 *300:A *89:21 0
4 *300:A *110:10 3.38178e-05
5 count[4] *300:A 6.67215e-05
6 *296:A *300:A 7.98535e-05
*RES
1 enable *300:A 5.8085 
*END

*D_NET *21 0.000906333
*CONN
*P preload I
*I *290:A I *D sky130_fd_sc_hd__buf_2
*CAP
1 preload 0.000407737
2 *290:A 0.000407737
3 *290:A *239:A 0
4 *290:A *94:10 0
5 count[3] *290:A 4.41979e-05
6 *282:A *290:A 4.66616e-05
*RES
1 preload *290:A 9.5487 
*END

*D_NET *22 0.00126597
*CONN
*P resetn I
*I *287:A I *D sky130_fd_sc_hd__dlygate4sd3_1
*CAP
1 resetn 0.00048426
2 *287:A 0.00048426
3 *287:A *291:A 0
4 *287:A *301:A 6.20388e-05
5 *287:A *85:19 0.000124016
6 count[0] *287:A 0.000111391
7 *296:A *287:A 0
*RES
1 resetn *287:A 8.7081 
*END

*D_NET *23 0.000540373
*CONN
*P up_down I
*I *292:A I *D sky130_fd_sc_hd__buf_1
*CAP
1 up_down 0.000243237
2 *292:A 0.000243237
3 *295:A *292:A 3.14094e-05
4 *299:A *292:A 2.24901e-05
*RES
1 up_down *292:A 6.8343 
*END

*D_NET *24 0.000883097
*CONN
*I *274:D I *D sky130_fd_sc_hd__dfrtp_1
*I *226:Y O *D sky130_fd_sc_hd__a21oi_1
*CAP
1 *274:D 0.000214393
2 *226:Y 0.000214393
3 *274:D *225:B2 1.70935e-05
4 *274:D *233:A2 0.00015639
5 *274:D *32:23 0.000131866
6 *289:A *274:D 0.00014896
*RES
1 *226:Y *274:D 11.85 
*END

*D_NET *25 0.000323471
*CONN
*I *275:D I *D sky130_fd_sc_hd__dfrtp_1
*I *232:X O *D sky130_fd_sc_hd__a21o_1
*CAP
1 *275:D 0.000161735
2 *232:X 0.000161735
3 *275:D *238:B1 0
*RES
1 *232:X *275:D 9.375 
*END

*D_NET *26 0.000485121
*CONN
*I *276:D I *D sky130_fd_sc_hd__dfrtp_2
*I *238:X O *D sky130_fd_sc_hd__a31o_1
*CAP
1 *276:D 0.000147664
2 *238:X 0.000147664
3 *276:D *238:A2 3.64998e-06
4 *276:D *36:38 9.30717e-05
5 *276:D *82:20 9.30717e-05
*RES
1 *238:X *276:D 9.465 
*END

*D_NET *27 0.00148488
*CONN
*I *277:D I *D sky130_fd_sc_hd__dfrtp_1
*I *244:X O *D sky130_fd_sc_hd__a221o_1
*CAP
1 *277:D 0.000366798
2 *244:X 0.000366798
3 *277:D *244:A2 7.4027e-05
4 *277:D *245:A2 0.000182343
5 *277:D *272:A1 2.37037e-05
6 *277:D *276:RESET_B 0.000159162
7 *277:D *277:CLK 5.30673e-05
8 *277:D *277:RESET_B 4.2554e-05
9 *277:D *304:A 0.000197264
10 *277:D *88:21 1.91597e-05
*RES
1 *244:X *277:D 15.93 
*END

*D_NET *28 0.000597666
*CONN
*I *278:D I *D sky130_fd_sc_hd__dfrtp_1
*I *253:X O *D sky130_fd_sc_hd__a31o_1
*CAP
1 *278:D 0.00017713
2 *253:X 0.00017713
3 *278:D *253:A2 0.000124895
4 *278:D *36:18 0.000118513
5 *278:D *82:68 0
*RES
1 *253:X *278:D 10.065 
*END

*D_NET *29 0.000198713
*CONN
*I *279:D I *D sky130_fd_sc_hd__dfrtp_1
*I *259:X O *D sky130_fd_sc_hd__a31o_1
*CAP
1 *279:D 5.79896e-05
2 *259:X 5.79896e-05
3 *279:D *259:A2 3.86529e-05
4 *279:D *279:RESET_B 0
5 *279:D *94:83 4.40812e-05
*RES
1 *259:X *279:D 8.58 
*END

*D_NET *30 0.000779802
*CONN
*I *280:D I *D sky130_fd_sc_hd__dfrtp_1
*I *268:X O *D sky130_fd_sc_hd__a31o_1
*CAP
1 *280:D 0.000341054
2 *268:X 0.000341054
3 *280:D *265:A 1.16854e-05
4 *280:D *265:B 2.86975e-05
5 *280:D *268:A2 1.52352e-05
6 *280:D *80:19 3.68682e-05
7 *280:D *83:50 5.20762e-06
*RES
1 *268:X *280:D 12.0938 
*END

*D_NET *31 0.000442263
*CONN
*I *281:D I *D sky130_fd_sc_hd__dfrtp_1
*I *273:X O *D sky130_fd_sc_hd__a21o_1
*CAP
1 *281:D 0.000142839
2 *273:X 0.000142839
3 *281:D *273:B1 9.5433e-05
4 *281:D *36:62 6.11508e-05
*RES
1 *273:X *281:D 9.465 
*END

*D_NET *32 0.00443999
*CONN
*I *229:A I *D sky130_fd_sc_hd__nand2_1
*I *230:A1 I *D sky130_fd_sc_hd__o21a_1
*I *225:B2 I *D sky130_fd_sc_hd__a22o_1
*I *233:A2 I *D sky130_fd_sc_hd__o21a_1
*I *220:Y O *D sky130_fd_sc_hd__inv_2
*CAP
1 *229:A 0
2 *230:A1 0.000210351
3 *225:B2 0.000121512
4 *233:A2 0.00014621
5 *220:Y 0.000221465
6 *32:40 0.000816075
7 *32:23 0.000824442
8 *32:12 0.000464881
9 *225:B2 *82:68 0.000143501
10 *230:A1 *230:A2 0.000299795
11 *230:A1 *302:A 0
12 *230:A1 *86:10 5.06989e-05
13 *233:A2 *226:A1 0.000161529
14 *233:A2 *233:A1 4.99619e-05
15 *233:A2 *36:32 5.24934e-05
16 *32:12 *226:A1 0.000196376
17 *32:12 *288:A 0.000137017
18 *32:23 *82:68 0.000152405
19 *32:40 *230:A2 6.3748e-05
20 *32:40 *231:B2 1.54878e-05
21 *32:40 *86:10 6.69608e-06
22 *274:D *225:B2 1.70935e-05
23 *274:D *233:A2 0.00015639
24 *274:D *32:23 0.000131866
25 *289:A *225:B2 0
*RES
1 *220:Y *32:12 9.59 
2 *32:12 *233:A2 4.81 
3 *32:12 *32:23 5.165 
4 *32:23 *225:B2 6.51 
5 *32:23 *32:40 9.035 
6 *32:40 *230:A1 9.785 
7 *32:40 *229:A 1.6 
*END

*D_NET *33 0.00119361
*CONN
*I *225:A2 I *D sky130_fd_sc_hd__a22o_1
*I *221:Y O *D sky130_fd_sc_hd__inv_2
*CAP
1 *225:A2 0.000279962
2 *221:Y 0.000279962
3 *225:A2 *274:RESET_B 5.39718e-05
4 *225:A2 *301:A 0.000115742
5 *225:A2 *82:45 2.0514e-05
6 *225:A2 *82:68 0.000203434
7 *225:A2 *85:19 0.000179365
8 count[0] *225:A2 6.06593e-05
*RES
1 *221:Y *225:A2 14.19 
*END

*D_NET *34 0.000493246
*CONN
*I *241:A2 I *D sky130_fd_sc_hd__o21ai_2
*I *222:Y O *D sky130_fd_sc_hd__inv_2
*CAP
1 *241:A2 0.000164723
2 *222:Y 0.000164723
3 *241:A2 *276:RESET_B 0
4 *241:A2 *50:10 9.40874e-05
5 *241:A2 *87:47 6.97118e-05
*RES
1 *222:Y *241:A2 9.72 
*END

*D_NET *35 0.0139437
*CONN
*I *258:B1 I *D sky130_fd_sc_hd__a22o_1
*I *244:B1 I *D sky130_fd_sc_hd__a221o_1
*I *237:B1 I *D sky130_fd_sc_hd__a22o_1
*I *231:B1 I *D sky130_fd_sc_hd__a22o_1
*I *225:B1 I *D sky130_fd_sc_hd__a22o_1
*I *272:B1 I *D sky130_fd_sc_hd__a22o_1
*I *267:B1 I *D sky130_fd_sc_hd__a22o_1
*I *252:B1 I *D sky130_fd_sc_hd__a22o_1
*I *223:Y O *D sky130_fd_sc_hd__nor2_2
*CAP
1 *258:B1 0.000119225
2 *244:B1 1.36534e-05
3 *237:B1 3.57729e-05
4 *231:B1 0
5 *225:B1 0.000352073
6 *272:B1 0.000101811
7 *267:B1 0
8 *252:B1 0.00012412
9 *223:Y 9.22e-05
10 *35:75 0.00125269
11 *35:63 0.00159123
12 *35:57 0.000805896
13 *35:44 0.0010252
14 *35:27 0.0012191
15 *35:21 0.000599132
16 *35:8 0.000263119
17 *225:B1 *231:A2 0
18 *225:B1 *82:45 0.000470022
19 *225:B1 *82:68 6.52524e-05
20 *244:B1 *239:B 4.66108e-05
21 *244:B1 *243:A1 4.66108e-05
22 *252:B1 *252:A2 1.60203e-05
23 *252:B1 *252:B2 4.99619e-05
24 *252:B1 *82:79 0.000125388
25 *252:B1 *82:97 2.7881e-05
26 *252:B1 *89:21 0.000181376
27 *258:B1 *258:A1 0.00010141
28 *258:B1 *305:A 5.4003e-05
29 *35:8 *224:B 0.000160635
30 *35:8 *89:27 4.66108e-05
31 *35:21 *258:A1 1.52184e-05
32 *35:21 *305:A 8.5242e-05
33 *35:21 *82:97 4.39001e-05
34 *35:21 *89:21 2.92496e-05
35 *35:27 *263:A1 0.000308713
36 *35:27 *267:A1 0.00101963
37 *35:27 *267:A2 7.98081e-05
38 *35:44 *267:A2 5.12969e-06
39 *35:44 *277:CLK 0.000113136
40 *35:44 *83:50 0.000616051
41 *35:57 *243:A2 8.76033e-05
42 *35:57 *243:B1 2.97004e-06
43 *35:57 *272:A1 0.000215034
44 *35:57 *36:62 0
45 *35:57 *83:54 9.37731e-05
46 *35:57 *88:29 0.000137571
47 *35:63 *238:A3 0.000182071
48 *35:63 *243:A2 0.000124851
49 *35:63 *243:B1 3.39064e-05
50 *35:63 *276:RESET_B 0
51 *35:63 *36:62 0
52 *35:63 *50:10 0
53 *35:63 *82:20 0.000564857
54 *35:75 *82:20 8.53113e-06
55 *35:75 *82:32 0.00118949
*RES
1 *223:Y *35:8 5.43 
2 *35:8 *252:B1 6.885 
3 *35:8 *35:21 1.38 
4 *35:21 *35:27 13.325 
5 *35:27 *267:B1 1.6 
6 *35:27 *35:44 14.41 
7 *35:44 *272:B1 2.755 
8 *35:44 *35:57 5.93 
9 *35:57 *35:63 13.335 
10 *35:63 *35:75 18.96 
11 *35:75 *225:B1 6.91 
12 *35:75 *231:B1 1.6 
13 *35:63 *237:B1 4.05 
14 *35:57 *244:B1 4.05 
15 *35:21 *258:B1 6.195 
*END

*D_NET *36 0.0114561
*CONN
*I *259:A1 I *D sky130_fd_sc_hd__a31o_1
*I *253:A1 I *D sky130_fd_sc_hd__a31o_1
*I *226:A2 I *D sky130_fd_sc_hd__a21oi_1
*I *230:B1 I *D sky130_fd_sc_hd__o21a_1
*I *273:A1 I *D sky130_fd_sc_hd__a21o_1
*I *268:A1 I *D sky130_fd_sc_hd__a31o_1
*I *242:B1 I *D sky130_fd_sc_hd__o21ai_1
*I *238:A1 I *D sky130_fd_sc_hd__a31o_1
*I *224:X O *D sky130_fd_sc_hd__and2b_2
*CAP
1 *259:A1 0.000313353
2 *253:A1 0
3 *226:A2 1.39765e-05
4 *230:B1 4.66182e-05
5 *273:A1 6.82639e-06
6 *268:A1 0.000662541
7 *242:B1 9.05877e-05
8 *238:A1 0
9 *224:X 0.000185198
10 *36:62 0.00126234
11 *36:47 0.000846132
12 *36:38 0.000715498
13 *36:32 0.00175329
14 *36:18 0.00138707
15 *36:10 0.000319336
16 *36:8 0.000598536
17 *226:A2 *226:A1 8.52137e-06
18 *230:B1 *232:A1 4.77719e-05
19 *230:B1 *232:B1 1.19928e-05
20 *242:B1 *240:A 0.00019637
21 *259:A1 *257:A 0
22 *259:A1 *259:A2 2.30292e-05
23 *259:A1 *259:A3 8.65961e-05
24 *259:A1 *259:B1 1.37328e-05
25 *259:A1 *279:RESET_B 0
26 *259:A1 *62:10 0
27 *259:A1 *90:22 1.33293e-05
28 *259:A1 *94:83 0.000144122
29 *268:A1 *91:21 8.41015e-06
30 *273:A1 *273:A2 8.7152e-06
31 *273:A1 *273:B1 6.71803e-06
32 *36:8 *247:A_N 4.82919e-05
33 *36:8 *89:27 2.34083e-05
34 *36:10 *248:A_N 0
35 *36:10 *253:A3 1.00941e-05
36 *36:10 *279:RESET_B 0
37 *36:10 *55:12 0
38 *36:10 *82:68 0
39 *36:18 *248:A_N 0
40 *36:18 *250:A 0
41 *36:18 *253:A2 0
42 *36:18 *264:A1 0
43 *36:18 *278:CLK 6.74079e-05
44 *36:18 *82:68 0
45 *36:32 *226:A1 3.70572e-05
46 *36:32 *226:B1 0.000494374
47 *36:32 *231:B2 0
48 *36:32 *233:B1 0
49 *36:32 *283:A 0
50 *36:32 *302:A 0
51 *36:32 *98:10 0
52 *36:38 *238:B1 0.000297747
53 *36:38 *82:20 0.000143793
54 *36:47 *235:B 0.000142092
55 *36:47 *238:B1 9.50342e-06
56 *36:47 *245:A2 7.54567e-05
57 *36:47 *245:B1_N 0
58 *36:47 *246:A2 0.000106331
59 *36:47 *44:25 4.17594e-05
60 *36:47 *82:20 0.000522972
61 *36:62 *243:B1 3.39151e-05
62 *36:62 *245:A2 0.000124641
63 *36:62 *273:B1 8.2561e-05
64 *36:62 *277:CLK 0
65 *36:62 *281:RESET_B 0
66 *36:62 *80:19 0
67 *36:62 *82:20 4.14369e-05
68 *36:62 *83:54 0
69 *36:62 *88:29 0
70 count[1] *230:B1 4.5606e-05
71 *233:A2 *36:32 5.24934e-05
72 *276:D *36:38 9.30717e-05
73 *278:D *36:18 0.000118513
74 *281:D *36:62 6.11508e-05
75 *289:A *36:32 1.17701e-05
76 *35:57 *36:62 0
77 *35:63 *36:62 0
*RES
1 *224:X *36:8 5.775 
2 *36:8 *36:10 1.635 
3 *36:10 *36:18 6.23 
4 *36:18 *36:32 11.7508 
5 *36:32 *36:38 5.2145 
6 *36:38 *238:A1 3.6 
7 *36:38 *36:47 6.225 
8 *36:47 *242:B1 5.43 
9 *36:47 *36:62 10.7325 
10 *36:62 *268:A1 6.0941 
11 *36:62 *273:A1 3.8325 
12 *36:32 *230:B1 5.0375 
13 *36:18 *226:A2 1.96 
14 *36:10 *253:A1 3.6 
15 *36:8 *259:A1 9.885 
*END

*D_NET *37 0.001222
*CONN
*I *226:B1 I *D sky130_fd_sc_hd__a21oi_1
*I *225:X O *D sky130_fd_sc_hd__a22o_1
*CAP
1 *226:B1 0.000135837
2 *225:X 0.000135837
3 *226:B1 *274:CLK 0.000139238
4 *226:B1 *278:CLK 0.000149766
5 *226:B1 *283:A 0
6 *226:B1 *79:10 9.16314e-05
7 *289:A *226:B1 7.53115e-05
8 *36:32 *226:B1 0.000494374
*RES
1 *225:X *226:B1 13.17 
*END

*D_NET *38 0.00194237
*CONN
*I *233:B1 I *D sky130_fd_sc_hd__o21a_1
*I *227:Y O *D sky130_fd_sc_hd__nand2b_1
*CAP
1 *233:B1 0.000593988
2 *227:Y 0.000593988
3 *233:B1 *226:A1 0
4 *233:B1 *227:A_N 0
5 *233:B1 *227:B 0.000233051
6 *233:B1 *233:A1 0.000156696
7 *233:B1 *235:A 8.65961e-05
8 *233:B1 *39:12 8.65961e-05
9 *233:B1 *86:27 0.000122797
10 *233:B1 *94:45 2.17499e-05
11 *233:B1 *94:58 4.69073e-05
12 *36:32 *233:B1 0
*RES
1 *227:Y *233:B1 13.835 
*END

*D_NET *39 0.0024467
*CONN
*I *233:A1 I *D sky130_fd_sc_hd__o21a_1
*I *229:B I *D sky130_fd_sc_hd__nand2_1
*I *230:A2 I *D sky130_fd_sc_hd__o21a_1
*I *228:X O *D sky130_fd_sc_hd__xor2_1
*CAP
1 *233:A1 0.000169851
2 *229:B 0
3 *230:A2 0.00017391
4 *228:X 0
5 *39:12 0.000418916
6 *39:4 0.000414856
7 *230:A2 *232:A1 0.000369338
8 *233:A1 *226:A1 0
9 *39:12 *283:A 0
10 *39:12 *302:A 9.50342e-06
11 *39:12 *86:10 6.72636e-05
12 *39:12 *86:27 5.96203e-05
13 *39:12 *98:10 0.000106648
14 *230:A1 *230:A2 0.000299795
15 *233:A2 *233:A1 4.99619e-05
16 *233:B1 *233:A1 0.000156696
17 *233:B1 *39:12 8.65961e-05
18 *32:40 *230:A2 6.3748e-05
*RES
1 *228:X *39:4 1.6 
2 *39:4 *39:12 8.215 
3 *39:12 *230:A2 10.925 
4 *39:12 *229:B 1.6 
5 *39:4 *233:A1 4.495 
*END

*D_NET *40 0.00134171
*CONN
*I *232:A1 I *D sky130_fd_sc_hd__a21o_1
*I *229:Y O *D sky130_fd_sc_hd__nand2_1
*CAP
1 *232:A1 0.000383409
2 *229:Y 0.000383409
3 *232:A1 *232:A2 4.89295e-05
4 *232:A1 *232:B1 2.76748e-05
5 count[1] *232:A1 8.11785e-05
6 *230:A2 *232:A1 0.000369338
7 *230:B1 *232:A1 4.77719e-05
8 *293:A *232:A1 0
*RES
1 *229:Y *232:A1 14.04 
*END

*D_NET *41 8.75394e-05
*CONN
*I *232:A2 I *D sky130_fd_sc_hd__a21o_1
*I *230:X O *D sky130_fd_sc_hd__o21a_1
*CAP
1 *232:A2 9.36896e-06
2 *230:X 9.36896e-06
3 *232:A2 *232:B1 1.9872e-05
4 *232:A1 *232:A2 4.89295e-05
*RES
1 *230:X *232:A2 3.65 
*END

*D_NET *42 0.00112542
*CONN
*I *232:B1 I *D sky130_fd_sc_hd__a21o_1
*I *231:X O *D sky130_fd_sc_hd__a22o_1
*CAP
1 *232:B1 0.000399182
2 *231:X 0.000399182
3 count[1] *232:B1 0.000267518
4 *230:B1 *232:B1 1.19928e-05
5 *232:A1 *232:B1 2.76748e-05
6 *232:A2 *232:B1 1.9872e-05
7 *294:A *232:B1 0
*RES
1 *231:X *232:B1 8.765 
*END

*D_NET *43 0.000973285
*CONN
*I *246:A3 I *D sky130_fd_sc_hd__o31ai_4
*I *310:A I *D sky130_fd_sc_hd__buf_2
*I *233:X O *D sky130_fd_sc_hd__o21a_1
*CAP
1 *246:A3 0.000142361
2 *310:A 0
3 *233:X 6.0844e-05
4 *43:12 0.000203205
5 *246:A3 *246:B1 3.81731e-05
6 *246:A3 *54:40 4.35348e-05
7 *246:A3 *96:10 0.000237802
8 *43:12 *283:A 0.00011852
9 *43:12 *54:40 1.19928e-05
10 *43:12 *94:58 0.000116853
*RES
1 *233:X *43:12 7.43 
2 *43:12 *310:A 1.6 
3 *43:12 *246:A3 5.185 
*END

*D_NET *44 0.00262167
*CONN
*I *246:A2 I *D sky130_fd_sc_hd__o31ai_4
*I *236:B I *D sky130_fd_sc_hd__or2_1
*I *235:B I *D sky130_fd_sc_hd__nand2_1
*I *234:X O *D sky130_fd_sc_hd__xor2_1
*CAP
1 *246:A2 0.000284139
2 *236:B 0
3 *235:B 0.000139599
4 *234:X 0.000234456
5 *44:25 0.000318006
6 *44:8 0.000407922
7 *235:B *235:A 0
8 *235:B *238:A2 8.65961e-05
9 *235:B *238:B1 9.50342e-06
10 *235:B *79:31 4.82919e-05
11 *246:A2 *245:A1 1.16578e-05
12 *246:A2 *245:B1_N 4.82919e-05
13 *246:A2 *246:B1 0.00031422
14 *246:A2 *94:41 0
15 *44:8 *94:21 0.000172629
16 *44:8 *94:28 0.000256177
17 *44:25 *94:41 0
18 *36:47 *235:B 0.000142092
19 *36:47 *246:A2 0.000106331
20 *36:47 *44:25 4.17594e-05
*RES
1 *234:X *44:8 7.845 
2 *44:8 *235:B 6.84 
3 *44:8 *44:25 0.615 
4 *44:25 *236:B 3.6 
5 *44:25 *246:A2 9.6 
*END

*D_NET *45 0.000378243
*CONN
*I *238:A2 I *D sky130_fd_sc_hd__a31o_1
*I *235:Y O *D sky130_fd_sc_hd__nand2_1
*CAP
1 *238:A2 0.000132484
2 *235:Y 0.000132484
3 *238:A2 *79:31 2.30292e-05
4 *235:B *238:A2 8.65961e-05
5 *276:D *238:A2 3.64998e-06
*RES
1 *235:Y *238:A2 5.375 
*END

*D_NET *46 0.000644906
*CONN
*I *238:A3 I *D sky130_fd_sc_hd__a31o_1
*I *241:B1 I *D sky130_fd_sc_hd__o21ai_2
*I *236:X O *D sky130_fd_sc_hd__or2_1
*CAP
1 *238:A3 7.60923e-05
2 *241:B1 2.22788e-05
3 *236:X 0
4 *46:4 9.83711e-05
5 *238:A3 *82:20 0.000182071
6 *238:A3 *94:28 3.57349e-05
7 *241:B1 *94:28 4.82863e-05
8 *35:63 *238:A3 0.000182071
*RES
1 *236:X *46:4 1.6 
2 *46:4 *241:B1 2.05 
3 *46:4 *238:A3 8.195 
*END

*D_NET *47 0.00071189
*CONN
*I *238:B1 I *D sky130_fd_sc_hd__a31o_1
*I *237:X O *D sky130_fd_sc_hd__a22o_1
*CAP
1 *238:B1 0.000148196
2 *237:X 0.000148196
3 *238:B1 *237:A2 1.47256e-05
4 *238:B1 *79:31 7.81876e-05
5 *235:B *238:B1 9.50342e-06
6 *275:D *238:B1 0
7 *294:A *238:B1 5.83121e-06
8 *36:38 *238:B1 0.000297747
9 *36:47 *238:B1 9.50342e-06
*RES
1 *237:X *238:B1 11.07 
*END

*D_NET *48 0.00221927
*CONN
*I *243:A1 I *D sky130_fd_sc_hd__a21oi_1
*I *240:A I *D sky130_fd_sc_hd__inv_2
*I *242:A1 I *D sky130_fd_sc_hd__o21ai_1
*I *239:Y O *D sky130_fd_sc_hd__xnor2_1
*CAP
1 *243:A1 0.000316077
2 *240:A 0.000191097
3 *242:A1 0
4 *239:Y 0
5 *48:16 0.000343992
6 *48:4 0.000468972
7 *240:A *82:20 0.000272984
8 *243:A1 *239:A 0
9 *243:A1 *239:B 6.1916e-05
10 *243:A1 *243:A2 1.29866e-05
11 *243:A1 *244:A2 0.000107418
12 *243:A1 *244:C1 2.75145e-05
13 *243:A1 *88:29 2.50318e-07
14 *48:16 *243:A2 0
15 *48:16 *276:RESET_B 0.000115365
16 *48:16 *82:6 4.60584e-05
17 *48:16 *82:20 1.16578e-05
18 *48:16 *82:136 0
19 *242:B1 *240:A 0.00019637
20 *244:B1 *243:A1 4.66108e-05
*RES
1 *239:Y *48:4 1.6 
2 *48:4 *48:16 7.075 
3 *48:16 *242:A1 1.6 
4 *48:16 *240:A 5.845 
5 *48:4 *243:A1 6.325 
*END

*D_NET *49 0.000417963
*CONN
*I *246:A1 I *D sky130_fd_sc_hd__o31ai_4
*I *240:Y O *D sky130_fd_sc_hd__inv_2
*CAP
1 *246:A1 0.000207497
2 *240:Y 0.000207497
3 *246:A1 *245:A2 0
4 *246:A1 *245:B1_N 2.97004e-06
5 *246:A1 *96:10 0
6 *282:A *246:A1 0
*RES
1 *240:Y *246:A1 9.975 
*END

*D_NET *50 0.00188666
*CONN
*I *243:A2 I *D sky130_fd_sc_hd__a21oi_1
*I *242:A2 I *D sky130_fd_sc_hd__o21ai_1
*I *241:Y O *D sky130_fd_sc_hd__o21ai_2
*CAP
1 *243:A2 0.000366123
2 *242:A2 0
3 *241:Y 0.000254386
4 *50:10 0.00062051
5 *243:A2 *239:B 2.75052e-05
6 *243:A2 *244:C1 4.45687e-05
7 *243:A2 *272:A1 9.71067e-05
8 *243:A2 *276:RESET_B 0
9 *243:A2 *82:136 9.30787e-05
10 *243:A2 *88:29 3.78034e-06
11 *50:10 *276:RESET_B 0
12 *50:10 *94:21 3.00381e-05
13 *50:10 *94:28 3.00381e-05
14 *241:A2 *50:10 9.40874e-05
15 *243:A1 *243:A2 1.29866e-05
16 *35:57 *243:A2 8.76033e-05
17 *35:63 *243:A2 0.000124851
18 *35:63 *50:10 0
19 *48:16 *243:A2 0
*RES
1 *241:Y *50:10 8.07 
2 *50:10 *242:A2 3.6 
3 *50:10 *243:A2 9.9 
*END

*D_NET *51 0.000375914
*CONN
*I *243:B1 I *D sky130_fd_sc_hd__a21oi_1
*I *242:Y O *D sky130_fd_sc_hd__o21ai_1
*CAP
1 *243:B1 0.000109266
2 *242:Y 0.000109266
3 *243:B1 *82:20 8.65905e-05
4 *35:57 *243:B1 2.97004e-06
5 *35:63 *243:B1 3.39064e-05
6 *36:62 *243:B1 3.39151e-05
*RES
1 *242:Y *243:B1 9.12 
*END

*D_NET *52 0.000146856
*CONN
*I *244:C1 I *D sky130_fd_sc_hd__a221o_1
*I *243:Y O *D sky130_fd_sc_hd__a21oi_1
*CAP
1 *244:C1 3.73863e-05
2 *243:Y 3.73863e-05
3 *244:C1 *239:B 0
4 *243:A1 *244:C1 2.75145e-05
5 *243:A2 *244:C1 4.45687e-05
*RES
1 *243:Y *244:C1 4.265 
*END

*D_NET *53 0.00146636
*CONN
*I *246:B1 I *D sky130_fd_sc_hd__o31ai_4
*I *245:Y O *D sky130_fd_sc_hd__o21bai_1
*CAP
1 *246:B1 0.000517937
2 *245:Y 0.000517937
3 *246:B1 *96:10 7.80931e-05
4 *246:A2 *246:B1 0.00031422
5 *246:A3 *246:B1 3.81731e-05
*RES
1 *245:Y *246:B1 10.13 
*END

*D_NET *54 0.00292364
*CONN
*I *264:A1 I *D sky130_fd_sc_hd__a31o_1
*I *250:A I *D sky130_fd_sc_hd__or2_1
*I *314:A I *D sky130_fd_sc_hd__clkbuf_1
*I *251:A I *D sky130_fd_sc_hd__nand2_1
*I *246:Y O *D sky130_fd_sc_hd__o31ai_4
*CAP
1 *264:A1 0.000208244
2 *250:A 3.31859e-05
3 *314:A 0
4 *251:A 1.51781e-05
5 *246:Y 0
6 *54:40 0.000478629
7 *54:18 0.000201478
8 *54:4 0.000423499
9 *250:A *250:B 7.5416e-05
10 *250:A *253:A2 2.97004e-06
11 *250:A *278:CLK 0
12 *251:A *249:A 3.23451e-05
13 *251:A *251:B 6.47524e-06
14 *251:A *57:25 2.05809e-05
15 *264:A1 *248:A_N 0.000122195
16 *264:A1 *250:B 6.21553e-05
17 *264:A1 *253:A2 3.68682e-05
18 *264:A1 *263:A1 6.81159e-05
19 *264:A1 *264:A2 0.000573905
20 *264:A1 *264:B1 0.000120186
21 *264:A1 *62:10 2.54523e-05
22 *54:18 *249:A 9.94948e-05
23 *54:18 *251:B 0
24 *54:18 *255:A1 5.83121e-06
25 *54:18 *255:A2 6.83495e-05
26 *54:18 *57:25 9.1393e-06
27 *54:18 *96:10 8.64421e-05
28 *54:40 *250:B 1.56428e-05
29 *54:40 *96:10 7.63347e-05
30 *246:A3 *54:40 4.35348e-05
31 *282:A *54:18 0
32 *36:18 *250:A 0
33 *36:18 *264:A1 0
34 *43:12 *54:40 1.19928e-05
*RES
1 *246:Y *54:4 1.6 
2 *54:4 *54:18 7.42 
3 *54:18 *251:A 2.4325 
4 *54:18 *314:A 1.6 
5 *54:4 *54:40 4.865 
6 *54:40 *250:A 4.47 
7 *54:40 *264:A1 11.1 
*END

*D_NET *55 0.00203096
*CONN
*I *255:B1 I *D sky130_fd_sc_hd__a21o_1
*I *249:A I *D sky130_fd_sc_hd__nor2_1
*I *247:X O *D sky130_fd_sc_hd__and2b_1
*CAP
1 *255:B1 0
2 *249:A 0.000391808
3 *247:X 0.000230056
4 *55:12 0.000621863
5 *249:A *251:B 9.73855e-05
6 *249:A *253:A3 6.63219e-06
7 *249:A *255:A1 2.61093e-05
8 *249:A *57:25 5.34642e-05
9 *249:A *57:40 7.25558e-05
10 *55:12 *248:A_N 2.03861e-05
11 *55:12 *248:B 8.23457e-05
12 *55:12 *253:A2 2.75229e-05
13 *55:12 *253:A3 8.41703e-06
14 *55:12 *57:40 3.79763e-05
15 *55:12 *62:10 0.000222597
16 *251:A *249:A 3.23451e-05
17 *282:A *249:A 0
18 *36:10 *55:12 0
19 *54:18 *249:A 9.94948e-05
*RES
1 *247:X *55:12 10.535 
2 *55:12 *249:A 11.795 
3 *55:12 *255:B1 1.6 
*END

*D_NET *56 0.00151111
*CONN
*I *249:B I *D sky130_fd_sc_hd__nor2_1
*I *248:X O *D sky130_fd_sc_hd__and2b_1
*CAP
1 *249:B 0.000478087
2 *248:X 0.000478087
3 *249:B *251:B 4.22401e-05
4 *249:B *253:A3 0.000433849
5 *249:B *283:A 1.88602e-05
6 *249:B *94:58 1.88602e-05
7 *282:A *249:B 4.11251e-05
*RES
1 *248:X *249:B 9.71547 
*END

*D_NET *57 0.0036225
*CONN