*SPEF "ieee 1481-1999"
*DESIGN "counter"
*DATE "12:45:43 Wednesday December 04, 2024"
*VENDOR "The OpenROAD Project"
*PROGRAM "OpenROAD"
*VERSION "b16bda7e82721d10566ff7e2b68f1ff0be9f9e38"
*DESIGN_FLOW "NAME_SCOPE LOCAL" "PIN_CAP NONE"
*DIVIDER /
*DELIMITER :
*BUS_DELIMITER []
*T_UNIT 1 NS
*C_UNIT 1 PF
*R_UNIT 1 OHM
*L_UNIT 1 HENRY

*NAME_MAP
*3 clk
*4 count[0]
*5 count[1]
*6 count[2]
*7 count[3]
*8 count[4]
*9 count[5]
*10 count[6]
*11 count[7]
*12 data[0]
*13 data[1]
*14 data[2]
*15 data[3]
*16 data[4]
*17 data[5]
*18 data[6]
*19 data[7]
*20 enable
*21 preload
*22 resetn
*23 up_down
*24 _000_
*25 _001_
*26 _002_
*27 _003_
*28 _004_
*29 _005_
*30 _006_
*31 _007_
*32 _008_
*33 _009_
*34 _010_
*35 _011_
*36 _012_
*37 _013_
*38 _014_
*39 _015_
*40 _016_
*41 _017_
*42 _018_
*43 _019_
*44 _020_
*45 _021_
*46 _022_
*47 _023_
*48 _024_
*49 _025_
*50 _026_
*51 _027_
*52 _028_
*53 _029_
*54 _030_
*55 _031_
*56 _032_
*57 _033_
*58 _034_
*59 _035_
*60 _036_
*61 _037_
*62 _038_
*63 _039_
*64 _040_
*65 _041_
*66 _042_
*67 _043_
*68 _044_
*69 _045_
*70 _046_
*71 _047_
*72 _048_
*73 _049_
*74 _050_
*75 _051_
*76 _052_
*77 _053_
*78 clknet_0_clk
*79 clknet_1_0__leaf_clk
*80 clknet_1_1__leaf_clk
*81 net1
*82 net10
*83 net11
*84 net12
*85 net13
*86 net14
*87 net15
*88 net16
*89 net17
*90 net18
*91 net19
*92 net2
*93 net20
*94 net21
*95 net22
*96 net23
*97 net24
*98 net3
*99 net4
*100 net5
*101 net6
*102 net7
*103 net8
*104 net9
*105 FILLER_0_0_15
*106 FILLER_0_0_27
*107 FILLER_0_0_29
*108 FILLER_0_0_3
*109 FILLER_0_0_54
*110 FILLER_0_0_67
*111 FILLER_0_10_18
*112 FILLER_0_10_26
*113 FILLER_0_10_29
*114 FILLER_0_10_35
*115 FILLER_0_10_54
*116 FILLER_0_10_6
*117 FILLER_0_10_66
*118 FILLER_0_11_15
*119 FILLER_0_11_24
*120 FILLER_0_11_32
*121 FILLER_0_11_46
*122 FILLER_0_11_54
*123 FILLER_0_11_57
*124 FILLER_0_11_69
*125 FILLER_0_11_7
*126 FILLER_0_11_77
*127 FILLER_0_12_15
*128 FILLER_0_12_27
*129 FILLER_0_12_29
*130 FILLER_0_12_3
*131 FILLER_0_12_35
*132 FILLER_0_12_54
*133 FILLER_0_12_57
*134 FILLER_0_12_69
*135 FILLER_0_12_77
*136 FILLER_0_1_51
*137 FILLER_0_1_57
*138 FILLER_0_2_22
*139 FILLER_0_2_29
*140 FILLER_0_2_41
*141 FILLER_0_2_7
*142 FILLER_0_2_77
*143 FILLER_0_3_13
*144 FILLER_0_3_25
*145 FILLER_0_3_49
*146 FILLER_0_3_55
*147 FILLER_0_3_57
*148 FILLER_0_4_49
*149 FILLER_0_4_74
*150 FILLER_0_4_9
*151 FILLER_0_5_10
*152 FILLER_0_5_21
*153 FILLER_0_5_26
*154 FILLER_0_5_38
*155 FILLER_0_5_54
*156 FILLER_0_5_57
*157 FILLER_0_6_29
*158 FILLER_0_6_3
*159 FILLER_0_6_64
*160 FILLER_0_7_36
*161 FILLER_0_7_44
*162 FILLER_0_7_53
*163 FILLER_0_7_62
*164 FILLER_0_7_7
*165 FILLER_0_8_23
*166 FILLER_0_8_27
*167 FILLER_0_8_29
*168 FILLER_0_8_41
*169 FILLER_0_8_50
*170 FILLER_0_9_14
*171 FILLER_0_9_49
*172 FILLER_0_9_55
*173 FILLER_0_9_57
*174 FILLER_0_9_6
*175 PHY_EDGE_ROW_0_Left_13
*176 PHY_EDGE_ROW_0_Right_0
*177 PHY_EDGE_ROW_10_Left_23
*178 PHY_EDGE_ROW_10_Right_10
*179 PHY_EDGE_ROW_11_Left_24
*180 PHY_EDGE_ROW_11_Right_11
*181 PHY_EDGE_ROW_12_Left_25
*182 PHY_EDGE_ROW_12_Right_12
*183 PHY_EDGE_ROW_1_Left_14
*184 PHY_EDGE_ROW_1_Right_1
*185 PHY_EDGE_ROW_2_Left_15
*186 PHY_EDGE_ROW_2_Right_2
*187 PHY_EDGE_ROW_3_Left_16
*188 PHY_EDGE_ROW_3_Right_3
*189 PHY_EDGE_ROW_4_Left_17
*190 PHY_EDGE_ROW_4_Right_4
*191 PHY_EDGE_ROW_5_Left_18
*192 PHY_EDGE_ROW_5_Right_5
*193 PHY_EDGE_ROW_6_Left_19
*194 PHY_EDGE_ROW_6_Right_6
*195 PHY_EDGE_ROW_7_Left_20
*196 PHY_EDGE_ROW_7_Right_7
*197 PHY_EDGE_ROW_8_Left_21
*198 PHY_EDGE_ROW_8_Right_8
*199 PHY_EDGE_ROW_9_Left_22
*200 PHY_EDGE_ROW_9_Right_9
*201 TAP_TAPCELL_ROW_0_26
*202 TAP_TAPCELL_ROW_0_27
*203 TAP_TAPCELL_ROW_10_37
*204 TAP_TAPCELL_ROW_11_38
*205 TAP_TAPCELL_ROW_12_39
*206 TAP_TAPCELL_ROW_12_40
*207 TAP_TAPCELL_ROW_1_28
*208 TAP_TAPCELL_ROW_2_29
*209 TAP_TAPCELL_ROW_3_30
*210 TAP_TAPCELL_ROW_4_31
*211 TAP_TAPCELL_ROW_5_32
*212 TAP_TAPCELL_ROW_6_33
*213 TAP_TAPCELL_ROW_7_34
*214 TAP_TAPCELL_ROW_8_35
*215 TAP_TAPCELL_ROW_9_36
*216 _054_
*217 _055_
*218 _056_
*219 _057_
*220 _058_
*221 _059_
*222 _060_
*223 _061_
*224 _062_
*225 _063_
*226 _064_
*227 _065_
*228 _066_
*229 _067_
*230 _068_
*231 _069_
*232 _070_
*233 _071_
*234 _072_
*235 _073_
*236 _074_
*237 _075_
*238 _076_
*239 _077_
*240 _078_
*241 _079_
*242 _080_
*243 _081_
*244 _082_
*245 _083_
*246 _084_
*247 _085_
*248 _086_
*249 _087_
*250 _088_
*251 _089_
*252 _090_
*253 _091_
*254 _092_
*255 _093_
*256 _094_
*257 _095_
*258 _096_
*259 _097_
*260 _098_
*261 _099_
*262 _100_
*263 _101_
*264 _102_
*265 _103_
*266 _104_
*267 _105_
*268 _106_
*269 _107_
*270 _108_
*271 _109_
*272 _110_
*273 _111_
*274 _112_
*275 _113_
*276 _114_
*277 _115_
*278 clkbuf_0_clk
*279 clkbuf_1_0__f_clk
*280 clkbuf_1_1__f_clk
*281 clkload0
*282 fanout21
*283 hold2
*284 hold3
*285 input1
*286 input10
*287 input11
*288 input12
*289 input2
*290 input3
*291 input4
*292 input5
*293 input6
*294 input7
*295 input8
*296 input9
*297 output13
*298 output14
*299 output15
*300 output16
*301 output17
*302 output18
*303 output19
*304 output20
*305 rebuffer1

*PORTS
clk I
count[0] O
count[1] O
count[2] O
count[3] O
count[4] O
count[5] O
count[6] O
count[7] O
data[0] I
data[1] I
data[2] I
data[3] I
data[4] I
data[5] I
data[6] I
data[7] I
enable I
preload I
resetn I
up_down I

*D_NET *3 0.00313557
*CONN
*P clk I
*I *278:A I *D sky130_fd_sc_hd__clkbuf_16
*CAP
1 clk 0.00140602
2 *278:A 0.00140602
3 *278:A count[2] 3.14094e-05
4 *278:A count[3] 0
5 *278:A *224:B 0
6 *278:A *242:A1 7.07722e-05
7 *278:A *242:A2 0.000145675
8 *278:A *272:RESET_B 0
9 *278:A *286:A 7.56675e-05
10 *278:A *291:A 0
11 *278:A *36:63 0
12 *278:A *94:64 0
13 *278:A *94:79 0
*RES
1 clk *278:A 11.8332 
*END

*D_NET *4 0.000792895
*CONN
*P count[0] O
*I *297:X O *D sky130_fd_sc_hd__buf_2
*CAP
1 count[0] 0.000286749
2 *297:X 0.000286749
3 count[0] *283:A 5.98708e-05
4 count[0] *287:A 3.12569e-05
5 count[0] *297:A 3.38178e-05
6 count[0] *83:94 9.44511e-05
*RES
1 *297:X count[0] 5.58983 
*END

*D_NET *5 0.00162631
*CONN
*P count[1] O
*I *298:X O *D sky130_fd_sc_hd__buf_2
*CAP
1 count[1] 0.000575977
2 *298:X 0.000575977
3 count[1] *227:A2 0.000195064
4 count[1] *233:B1 9.00977e-05
5 count[1] *271:D 4.89295e-05
6 count[1] *289:A 0.000140267
*RES
1 *298:X count[1] 14.655 
*END

*D_NET *6 0.000590999
*CONN
*P count[2] O
*I *299:X O *D sky130_fd_sc_hd__buf_2
*CAP
1 count[2] 0.000279795
2 *299:X 0.000279795
3 *278:A count[2] 3.14094e-05
*RES
1 *299:X count[2] 7.1793 
*END

*D_NET *7 0.00075878
*CONN
*P count[3] O
*I *300:X O *D sky130_fd_sc_hd__buf_2
*CAP
1 count[3] 0.00024157
2 *300:X 0.00024157
3 count[3] *239:A1 1.88656e-05
4 count[3] *286:A 7.32038e-05
5 count[3] *291:A 8.47237e-05
6 count[3] *88:18 9.88464e-05
7 *278:A count[3] 0
*RES
1 *300:X count[3] 6.94503 
*END

*D_NET *8 0.000441512
*CONN
*P count[4] O
*I *301:X O *D sky130_fd_sc_hd__buf_2
*CAP
1 count[4] 0.00013904
2 *301:X 0.00013904
3 count[4] count[5] 0
4 count[4] *292:A 0
5 count[4] *293:A 7.56675e-05
6 count[4] *296:A 6.67215e-05
7 count[4] *83:34 2.10433e-05
*RES
1 *301:X count[4] 4.84677 
*END

*D_NET *9 0.000497242
*CONN
*P count[5] O
*I *302:X O *D sky130_fd_sc_hd__buf_2
*CAP
1 count[5] 0.000195381
2 *302:X 0.000195381
3 count[5] *293:A 7.32103e-05
4 count[5] *302:A 3.32709e-05
5 count[4] count[5] 0
*RES
1 *302:X count[5] 5.35677 
*END

*D_NET *10 0.000903714
*CONN
*P count[6] O
*I *303:X O *D sky130_fd_sc_hd__clkbuf_4
*CAP
1 count[6] 0.000451857
2 *303:X 0.000451857
3 count[6] *294:A 0
*RES
1 *303:X count[6] 11.73 
*END

*D_NET *11 0.000511967
*CONN
*P count[7] O
*I *304:X O *D sky130_fd_sc_hd__buf_2
*CAP
1 count[7] 0.000233987
2 *304:X 0.000233987
3 count[7] *288:A 0
4 count[7] *295:A 2.85068e-05
5 count[7] *93:21 1.54862e-05
*RES
1 *304:X count[7] 5.16003 
*END

*D_NET *12 0.00131282
*CONN
*P data[0] I
*I *285:A I *D sky130_fd_sc_hd__clkbuf_1
*CAP
1 data[0] 0.000579666
2 *285:A 0.000579666
3 *285:A *221:A1 1.94892e-05
4 *285:A *221:B1 4.9968e-05
5 *285:A *221:B2 8.40269e-05
*RES
1 data[0] *285:A 14.82 
*END

*D_NET *13 0.00146534
*CONN
*P data[1] I
*I *289:A I *D sky130_fd_sc_hd__clkbuf_1
*CAP
1 data[1] 0.000509699
2 *289:A 0.000509699
3 *289:A *227:A2 3.09179e-05
4 *289:A *228:A1 0.000227208
5 *289:A *228:A2 2.97746e-05
6 *289:A *228:B1 1.77709e-05
7 count[1] *289:A 0.000140267
*RES
1 data[1] *289:A 14.04 
*END

*D_NET *14 0.000948127
*CONN
*P data[2] I
*I *290:A I *D sky130_fd_sc_hd__clkbuf_1
*CAP
1 data[2] 0.000428941
2 *290:A 0.000428941
3 *290:A *233:A2 3.64998e-06
4 *290:A *233:B1 8.65961e-05
*RES
1 data[2] *290:A 11.355 
*END

*D_NET *15 0.00249562
*CONN
*P data[3] I
*I *291:A I *D sky130_fd_sc_hd__clkbuf_1
*CAP
1 data[3] 0.000925002
2 *291:A 0.000925002
3 *291:A *263:A1 0
4 *291:A *272:CLK 0.000108659
5 *291:A *288:A 8.53361e-05
6 *291:A *36:63 0.000185405
7 *291:A *79:23 6.10014e-05
8 *291:A *79:47 0.000120495
9 count[3] *291:A 8.47237e-05
10 *278:A *291:A 0
*RES
1 data[3] *291:A 11.7606 
*END

*D_NET *16 0.000710155
*CONN
*P data[4] I
*I *292:A I *D sky130_fd_sc_hd__clkbuf_1
*CAP
1 data[4] 0.000245719
2 *292:A 0.000245719
3 *292:A *283:A 0
4 *292:A *296:A 7.56675e-05
5 *292:A *35:16 7.14774e-05
6 *292:A *83:34 7.1572e-05
7 count[4] *292:A 0
*RES
1 data[4] *292:A 6.2383 
*END

*D_NET *17 0.000409098
*CONN
*P data[5] I
*I *293:A I *D sky130_fd_sc_hd__clkbuf_1
*CAP
1 data[5] 0.000117267
2 *293:A 0.000117267
3 *293:A *83:34 2.56866e-05
4 count[4] *293:A 7.56675e-05
5 count[5] *293:A 7.32103e-05
*RES
1 data[5] *293:A 5.0435 
*END

*D_NET *18 0.00135112
*CONN
*P data[6] I
*I *294:A I *D sky130_fd_sc_hd__clkbuf_1
*CAP
1 data[6] 0.000561361
2 *294:A 0.000561361
3 *294:A *258:B 0.00012657
4 *294:A *259:B1_N 1.60203e-05
5 *294:A *84:40 8.58063e-05
6 count[6] *294:A 0
*RES
1 data[6] *294:A 13.86 
*END

*D_NET *19 0.0005941
*CONN
*P data[7] I
*I *295:A I *D sky130_fd_sc_hd__clkbuf_1
*CAP
1 data[7] 0.000271552
2 *295:A 0.000271552
3 *295:A *288:A 2.24901e-05
4 *295:A *93:21 0
5 count[7] *295:A 2.85068e-05
*RES
1 data[7] *295:A 7.3443 
*END

*D_NET *20 0.000562127
*CONN
*P enable I
*I *296:A I *D sky130_fd_sc_hd__clkbuf_1
*CAP
1 enable 0.000155546
2 *296:A 0.000155546
3 *296:A *83:34 0.000108647
4 count[4] *296:A 6.67215e-05
5 *292:A *296:A 7.56675e-05
*RES
1 enable *296:A 5.8085 
*END

*D_NET *21 0.00140763
*CONN
*P preload I
*I *286:A I *D sky130_fd_sc_hd__buf_2
*CAP
1 preload 0.000326333
2 *286:A 0.000326333
3 *286:A *235:A 2.35614e-05
4 *286:A *241:A1 8.40269e-05
5 *286:A *241:A2 0.00031942
6 *286:A *282:A 8.65905e-05
7 *286:A *94:19 9.24936e-05
8 count[3] *286:A 7.32038e-05
9 *278:A *286:A 7.56675e-05
*RES
1 preload *286:A 10.3535 
*END

*D_NET *22 0.00125595
*CONN
*P resetn I
*I *283:A I *D sky130_fd_sc_hd__dlygate4sd3_1
*CAP
1 resetn 0.000450863
2 *283:A 0.000450863
3 *283:A *217:A 8.65905e-05
4 *283:A *222:A1 0.000109947
5 *283:A *287:A 7.40016e-05
6 *283:A *83:18 2.38115e-05
7 count[0] *283:A 5.98708e-05
8 *292:A *283:A 0
*RES
1 resetn *283:A 10.6102 
*END

*D_NET *23 0.000631273
*CONN
*P up_down I
*I *288:A I *D sky130_fd_sc_hd__buf_1
*CAP
1 up_down 0.000261723
2 *288:A 0.000261723
3 *288:A *240:B1 0
4 *288:A *93:10 0
5 count[7] *288:A 0
6 *291:A *288:A 8.53361e-05
7 *295:A *288:A 2.24901e-05
*RES
1 up_down *288:A 6.63177 
*END

*D_NET *24 0.000439295
*CONN
*I *270:D I *D sky130_fd_sc_hd__dfrtp_1
*I *222:Y O *D sky130_fd_sc_hd__a21oi_1
*CAP
1 *270:D 0.00013814
2 *222:Y 0.00013814
3 *270:D *217:A 4.45508e-05
4 *270:D *222:A1 8.65905e-05
5 *270:D *80:14 3.18735e-05
*RES
1 *222:Y *270:D 9.4425 
*END

*D_NET *25 0.000308333
*CONN
*I *271:D I *D sky130_fd_sc_hd__dfrtp_1
*I *228:X O *D sky130_fd_sc_hd__a21o_1
*CAP
1 *271:D 0.000119065
2 *228:X 0.000119065
3 *271:D *228:B1 2.12738e-05
4 count[1] *271:D 4.89295e-05
*RES
1 *228:X *271:D 9.03 
*END

*D_NET *26 0.000652389
*CONN
*I *272:D I *D sky130_fd_sc_hd__dfrtp_2
*I *234:X O *D sky130_fd_sc_hd__a31o_1
*CAP
1 *272:D 0.00022071
2 *234:X 0.00022071
3 *272:D *234:A1 1.19928e-05
4 *272:D *234:A3 3.45588e-05
5 *272:D *234:B1 5.50222e-05
6 *272:D *272:CLK 9.28053e-05
7 *272:D *82:55 1.65895e-05
*RES
1 *234:X *272:D 10.665 
*END

*D_NET *27 0.000392776
*CONN
*I *273:D I *D sky130_fd_sc_hd__dfrtp_1
*I *240:X O *D sky130_fd_sc_hd__a221o_1
*CAP
1 *273:D 0.000139282
2 *240:X 0.000139282
3 *273:D *240:A2 0.000111056
4 *273:D *88:8 3.1562e-06
*RES
1 *240:X *273:D 5.045 
*END

*D_NET *28 0.000843003
*CONN
*I *274:D I *D sky130_fd_sc_hd__dfrtp_1
*I *249:X O *D sky130_fd_sc_hd__a31o_1
*CAP
1 *274:D 0.000224677
2 *249:X 0.000224677
3 *274:D *36:31 0.000272994
4 *274:D *82:114 0
5 *274:D *89:18 0.000120655
*RES
1 *249:X *274:D 11.505 
*END

*D_NET *29 0.000185658
*CONN
*I *275:D I *D sky130_fd_sc_hd__dfrtp_1
*I *255:X O *D sky130_fd_sc_hd__a31o_1
*CAP
1 *275:D 6.97462e-05
2 *255:X 6.97462e-05
3 *275:D *275:CLK 4.61658e-05
*RES
1 *255:X *275:D 8.58 
*END

*D_NET *30 0.00154355
*CONN
*I *276:D I *D sky130_fd_sc_hd__dfrtp_1
*I *264:X O *D sky130_fd_sc_hd__a31o_1
*CAP
1 *276:D 0.000352001
2 *264:X 0.000352001
3 *276:D *263:A1 0.00011114
4 *276:D *264:A2 7.23602e-05
5 *276:D *276:RESET_B 2.40101e-05
6 *276:D *35:91 0.000320908
7 *276:D *91:10 0.00031113
*RES
1 *264:X *276:D 15.81 
*END

*D_NET *31 0.00105015
*CONN
*I *277:D I *D sky130_fd_sc_hd__dfrtp_1
*I *269:X O *D sky130_fd_sc_hd__a21o_1
*CAP
1 *277:D 0.000333084
2 *269:X 0.000333084
3 *277:D *263:A1 1.79536e-05
4 *277:D *268:A2 0.000118513
5 *277:D *269:B1 7.4027e-05
6 *277:D *277:CLK 8.3303e-06
7 *277:D *277:RESET_B 5.84343e-05
8 *277:D *282:A 1.46216e-05
9 *277:D *36:71 0
10 *277:D *82:16 9.21068e-05
*RES
1 *269:X *277:D 12.675 
*END

*D_NET *32 0.00254473
*CONN
*I *221:B2 I *D sky130_fd_sc_hd__a22o_1
*I *229:A2 I *D sky130_fd_sc_hd__o21a_1
*I *226:A1 I *D sky130_fd_sc_hd__o21a_1
*I *225:A I *D sky130_fd_sc_hd__nand2_1
*I *216:Y O *D sky130_fd_sc_hd__inv_2
*CAP
1 *221:B2 0.000315987
2 *229:A2 0.000204726
3 *226:A1 0
4 *225:A 9.00536e-05
5 *216:Y 0
6 *32:12 9.00536e-05
7 *32:10 0.000409692
8 *32:4 0.000520953
9 *221:B2 *221:A1 2.29156e-05
10 *221:B2 *221:A2 0.000289141
11 *221:B2 *221:B1 4.66108e-05
12 *221:B2 *228:A1 0.00010422
13 *225:A *217:A 4.00541e-06
14 *225:A *226:B1 4.00541e-06
15 *225:A *36:46 5.0751e-05
16 *229:A2 *225:B 7.47145e-05
17 *229:A2 *229:A1 2.11084e-05
18 *32:10 *222:B1 0
19 *32:10 *225:B 9.50342e-06
20 *32:10 *228:A1 3.86607e-05
21 *32:10 *271:CLK 0.000160635
22 *32:10 *80:14 0
23 *32:10 *86:30 2.97004e-06
24 *285:A *221:B2 8.40269e-05
*RES
1 *216:Y *32:4 1.6 
2 *32:4 *32:10 4.865 
3 *32:10 *32:12 2 
4 *32:12 *225:A 3.46 
5 *32:12 *226:A1 1.6 
6 *32:10 *229:A2 6.375 
7 *32:4 *221:B2 11.93 
*END

*D_NET *33 0.00094726
*CONN
*I *221:A2 I *D sky130_fd_sc_hd__a22o_1
*I *217:Y O *D sky130_fd_sc_hd__inv_2
*CAP
1 *221:A2 0.000207495
2 *217:Y 0.000207495
3 *221:A2 *221:A1 7.37699e-05
4 *221:A2 *222:B1 0.000127371
5 *221:A2 *228:A1 4.19884e-05
6 *221:B2 *221:A2 0.000289141
*RES
1 *217:Y *221:A2 12.36 
*END

*D_NET *34 0.000392963
*CONN
*I *237:A2 I *D sky130_fd_sc_hd__o21ai_1
*I *218:Y O *D sky130_fd_sc_hd__inv_2
*CAP
1 *237:A2 7.01996e-05
2 *218:Y 7.01996e-05
3 *237:A2 *237:B1 1.34361e-05
4 *237:A2 *241:A1 0.000122963
5 *237:A2 *94:25 0.000116165
*RES
1 *218:Y *237:A2 9.03 
*END

*D_NET *35 0.0136422
*CONN
*I *263:B1 I *D sky130_fd_sc_hd__a22o_1
*I *268:B1 I *D sky130_fd_sc_hd__a22o_1
*I *240:B1 I *D sky130_fd_sc_hd__a221o_1
*I *254:B1 I *D sky130_fd_sc_hd__a22o_1
*I *248:B1 I *D sky130_fd_sc_hd__a22o_1
*I *221:B1 I *D sky130_fd_sc_hd__a22o_1
*I *227:B1 I *D sky130_fd_sc_hd__a22o_1
*I *233:B1 I *D sky130_fd_sc_hd__a22o_1
*I *219:Y O *D sky130_fd_sc_hd__nor2_2
*CAP
1 *263:B1 6.59648e-05
2 *268:B1 2.59624e-05
3 *240:B1 0.000180673
4 *254:B1 0
5 *248:B1 6.97476e-05
6 *221:B1 0.000163661
7 *227:B1 2.30962e-05
8 *233:B1 0.00102997
9 *219:Y 9.44536e-05
10 *35:91 0.00119735
11 *35:87 0.00196896
12 *35:74 0.00101901
13 *35:26 0.00120094
14 *35:16 0.000870651
15 *35:10 0.000701222
16 *35:8 0.000273539
17 *221:B1 *217:A 6.28765e-05
18 *221:B1 *221:A1 0
19 *221:B1 *297:A 0
20 *227:B1 *227:A1 3.30047e-05
21 *227:B1 *271:CLK 4.99619e-05
22 *227:B1 *82:95 9.80032e-06
23 *233:B1 *228:A1 0.000235339
24 *233:B1 *233:A1 3.00381e-05
25 *233:B1 *233:A2 5.10415e-05
26 *233:B1 *298:A 9.52156e-05
27 *240:B1 *240:A2 0
28 *240:B1 *240:B2 6.23869e-05
29 *240:B1 *282:A 0.000252275
30 *240:B1 *88:14 1.40178e-05
31 *240:B1 *93:10 3.86607e-05
32 *248:B1 *248:A2 6.97034e-05
33 *263:B1 *259:B1_N 0
34 *263:B1 *263:A1 6.13392e-05
35 *263:B1 *83:70 2.98637e-05
36 *268:B1 *282:A 7.70828e-05
37 *268:B1 *93:10 4.03082e-05
38 *268:B1 *93:21 5.53249e-06
39 *35:8 *220:B 0.000122331
40 *35:10 *254:A1 5.16348e-05
41 *35:10 *301:A 0.000174526
42 *35:10 *83:34 0
43 *35:10 *104:10 4.19884e-05
44 *35:16 *216:A 0.000120571
45 *35:16 *284:A 1.94723e-05
46 *35:16 *287:A 6.97143e-05
47 *35:16 *297:A 3.73751e-05
48 *35:16 *301:A 3.09164e-05
49 *35:16 *82:114 0.000130453
50 *35:16 *83:18 0
51 *35:16 *83:34 0
52 *35:16 *85:8 2.8185e-05
53 *35:16 *89:10 0.000250609
54 *35:16 *89:51 7.47284e-05
55 *35:26 *216:A 6.00144e-05
56 *35:26 *227:A1 0
57 *35:26 *271:CLK 0.000262783
58 *35:26 *82:95 0.000295662
59 *35:26 *82:114 0.000114856
60 *35:74 *254:A1 0.000291372
61 *35:74 *255:A1 0
62 *35:74 *301:A 0.000155176
63 *35:87 *254:A1 3.09164e-05
64 *35:87 *255:A1 0
65 *35:87 *83:52 0.000224285
66 *35:87 *90:10 7.26551e-05
67 *35:91 *263:B2 2.10214e-05
68 *35:91 *268:A1 4.66108e-05
69 *35:91 *276:CLK 7.35813e-05
70 *35:91 *276:RESET_B 8.70076e-06
71 *35:91 *83:52 3.49754e-05
72 *35:91 *84:12 9.60582e-07
73 *35:91 *91:10 2.68464e-05
74 count[1] *233:B1 9.00977e-05
75 *221:B2 *221:B1 4.66108e-05
76 *276:D *35:91 0.000320908
77 *285:A *221:B1 4.9968e-05
78 *288:A *240:B1 0
79 *290:A *233:B1 8.65961e-05
80 *292:A *35:16 7.14774e-05
*RES
1 *219:Y *35:8 5.085 
2 *35:8 *35:10 2.145 
3 *35:10 *35:16 14.33 
4 *35:16 *35:26 5.52 
5 *35:26 *233:B1 19.07 
6 *35:26 *227:B1 2.41 
7 *35:16 *221:B1 8.45 
8 *35:10 *248:B1 4.74 
9 *35:8 *35:74 3.42 
10 *35:74 *254:B1 3.6 
11 *35:74 *35:87 13.655 
12 *35:87 *35:91 14.18 
13 *35:91 *240:B1 7.665 
14 *35:91 *268:B1 4.47 
15 *35:87 *263:B1 6.725 
*END

*D_NET *36 0.00983389
*CONN
*I *249:A1 I *D sky130_fd_sc_hd__a31o_1
*I *226:B1 I *D sky130_fd_sc_hd__o21a_1
*I *238:B1 I *D sky130_fd_sc_hd__o21ai_1
*I *264:A1 I *D sky130_fd_sc_hd__a31o_1
*I *269:A1 I *D sky130_fd_sc_hd__a21o_1
*I *234:A1 I *D sky130_fd_sc_hd__a31o_1
*I *222:A2 I *D sky130_fd_sc_hd__a21oi_1
*I *255:A1 I *D sky130_fd_sc_hd__a31o_1
*I *220:X O *D sky130_fd_sc_hd__and2b_2
*CAP
1 *249:A1 2.08101e-05
2 *226:B1 1.90984e-05
3 *238:B1 0
4 *264:A1 0.000748024
5 *269:A1 3.3941e-05
6 *234:A1 5.7032e-05
7 *222:A2 3.14964e-05
8 *255:A1 0.000311134
9 *220:X 4.43379e-05
10 *36:71 0.00120852
11 *36:63 0.000787833
12 *36:48 0.000984862
13 *36:46 0.000847604
14 *36:31 0.000555143
15 *36:25 0.000417861
16 *36:8 0.000490827
17 *222:A2 *217:A 0
18 *222:A2 *80:14 2.78732e-05
19 *222:A2 *82:114 0
20 *234:A1 *234:B1 8.8266e-05
21 *249:A1 *248:A2 0
22 *255:A1 *249:A2 0
23 *255:A1 *275:CLK 0
24 *255:A1 *301:A 0
25 *255:A1 *82:127 1.01661e-05
26 *264:A1 *261:A 5.96679e-05
27 *264:A1 *261:B 0.000120921
28 *264:A1 *264:A3 4.36573e-06
29 *264:A1 *264:B1 0
30 *264:A1 *265:A2 0.000208207
31 *264:A1 *91:10 6.23541e-06
32 *36:25 *249:A2 0
33 *36:25 *249:B1 3.72916e-05
34 *36:25 *82:127 5.02217e-05
35 *36:25 *89:18 2.26018e-05
36 *36:31 *249:A2 3.09164e-05
37 *36:31 *249:A3 5.83121e-06
38 *36:31 *275:CLK 0.000151624
39 *36:31 *80:10 6.5525e-05
40 *36:31 *80:14 8.7974e-05
41 *36:31 *82:114 0
42 *36:31 *89:18 3.09179e-05
43 *36:46 *217:A 0.000160635
44 *36:46 *225:B 7.23635e-05
45 *36:46 *39:14 8.8266e-05
46 *36:48 *228:A2 1.77595e-05
47 *36:48 *234:B1 3.66286e-05
48 *36:48 *39:14 2.30292e-05
49 *36:63 *236:A 8.40213e-05
50 *36:63 *238:A2 4.66742e-05
51 *36:63 *242:A1 0
52 *36:63 *242:A2 0
53 *36:63 *272:CLK 0.00011958
54 *36:63 *281:A 8.23457e-05
55 *36:63 *43:24 0.000135234
56 *36:63 *48:23 1.46828e-05
57 *36:71 *239:B1 3.23391e-05
58 *36:71 *240:A2 0.000396544
59 *36:71 *269:B1 0
60 *36:71 *273:CLK 0.000228299
61 *36:71 *276:CLK 7.94003e-05
62 *36:71 *79:47 8.26614e-05
63 *36:71 *82:12 4.11463e-05
64 *36:71 *82:16 0
65 *225:A *226:B1 4.00541e-06
66 *225:A *36:46 5.0751e-05
67 *272:D *234:A1 1.19928e-05
68 *274:D *36:31 0.000272994
69 *277:D *36:71 0
70 *278:A *36:63 0
71 *291:A *36:63 0.000185405
72 *35:74 *255:A1 0
73 *35:87 *255:A1 0
*RES
1 *220:X *36:8 4.05 
2 *36:8 *255:A1 8.745 
3 *36:8 *36:25 4.61 
4 *36:25 *36:31 9.02 
5 *36:31 *222:A2 4.215 
6 *36:31 *36:46 6.95 
7 *36:46 *36:48 8.73 
8 *36:48 *234:A1 2.74 
9 *36:48 *36:63 11.8 
10 *36:63 *36:71 14.155 
11 *36:71 *269:A1 2.05 
12 *36:71 *264:A1 17.075 
13 *36:63 *238:B1 1.6 
14 *36:46 *226:B1 1.96 
15 *36:25 *249:A1 1.96 
*END

*D_NET *37 0.000594888
*CONN
*I *222:B1 I *D sky130_fd_sc_hd__a21oi_1
*I *221:X O *D sky130_fd_sc_hd__a22o_1
*CAP
1 *222:B1 0.00012876
2 *221:X 0.00012876
3 *222:B1 *217:A 0
4 *222:B1 *221:A1 7.23533e-05
5 *222:B1 *80:14 0.000137645
6 *221:A2 *222:B1 0.000127371
7 *32:10 *222:B1 0
*RES
1 *221:X *222:B1 10.365 
*END

*D_NET *38 0.00071677
*CONN
*I *229:B1 I *D sky130_fd_sc_hd__o21a_1
*I *223:Y O *D sky130_fd_sc_hd__nand2b_1
*CAP
1 *229:B1 0.000209041
2 *223:Y 0.000209041
3 *229:B1 *223:B 7.08493e-05
4 *229:B1 *229:A1 5.35313e-05
5 *229:B1 *39:6 0.000123955
6 *229:B1 *43:12 3.86126e-05
7 *229:B1 *94:53 1.17409e-05
*RES
1 *223:Y *229:B1 7.37 
*END

*D_NET *39 0.00134214
*CONN
*I *229:A1 I *D sky130_fd_sc_hd__o21a_1
*I *225:B I *D sky130_fd_sc_hd__nand2_1
*I *226:A2 I *D sky130_fd_sc_hd__o21a_1
*I *224:X O *D sky130_fd_sc_hd__xor2_1
*CAP
1 *229:A1 8.0443e-05
2 *225:B 0.000101056
3 *226:A2 0
4 *224:X 0.000111613
5 *39:14 0.00024578
6 *39:6 0.00033678
7 *225:B *80:14 0
8 *39:14 *86:12 0
9 *229:A2 *225:B 7.47145e-05
10 *229:A2 *229:A1 2.11084e-05
11 *229:B1 *229:A1 5.35313e-05
12 *229:B1 *39:6 0.000123955
13 *32:10 *225:B 9.50342e-06
14 *36:46 *225:B 7.23635e-05
15 *36:46 *39:14 8.8266e-05
16 *36:48 *39:14 2.30292e-05
*RES
1 *224:X *39:6 3.085 
2 *39:6 *39:14 6.01 
3 *39:14 *226:A2 1.6 
4 *39:14 *225:B 7.265 
5 *39:6 *229:A1 3.265 
*END

*D_NET *40 0.00117538
*CONN
*I *228:A1 I *D sky130_fd_sc_hd__a21o_1
*I *225:Y O *D sky130_fd_sc_hd__nand2_1
*CAP
1 *228:A1 0.000259194
2 *225:Y 0.000259194
3 *228:A1 *227:B2 9.5799e-06
4 *228:A1 *298:A 0
5 *228:A1 *86:30 0
6 *221:A2 *228:A1 4.19884e-05
7 *221:B2 *228:A1 0.00010422
8 *233:B1 *228:A1 0.000235339
9 *289:A *228:A1 0.000227208
10 *32:10 *228:A1 3.86607e-05
*RES
1 *225:Y *228:A1 13.65 
*END

*D_NET *41 0.000806201
*CONN
*I *228:A2 I *D sky130_fd_sc_hd__a21o_1
*I *226:X O *D sky130_fd_sc_hd__o21a_1
*CAP
1 *228:A2 0.00022164
2 *226:X 0.00022164
3 *228:A2 *227:A2 6.63261e-05
4 *228:A2 *228:B1 1.13346e-05
5 *228:A2 *298:A 0.000207731
6 *228:A2 *86:12 0
7 *228:A2 *86:30 2.99953e-05
8 *289:A *228:A2 2.97746e-05
9 *36:48 *228:A2 1.77595e-05
*RES
1 *226:X *228:A2 11.325 
*END

*D_NET *42 0.000396212
*CONN
*I *228:B1 I *D sky130_fd_sc_hd__a21o_1
*I *227:X O *D sky130_fd_sc_hd__a22o_1
*CAP
1 *228:B1 0.000114546
2 *227:X 0.000114546
3 *228:B1 *227:A2 7.01303e-05
4 *228:B1 *82:82 4.66108e-05
5 *228:A2 *228:B1 1.13346e-05
6 *271:D *228:B1 2.12738e-05
7 *289:A *228:B1 1.77709e-05
*RES
1 *227:X *228:B1 9.285 
*END

*D_NET *43 0.0024171
*CONN
*I *242:A3 I *D sky130_fd_sc_hd__o31ai_4
*I *231:A I *D sky130_fd_sc_hd__nand2_1
*I *232:A I *D sky130_fd_sc_hd__or2_1
*I *229:X O *D sky130_fd_sc_hd__o21a_1
*CAP
1 *242:A3 0
2 *231:A 0
3 *232:A 2.72258e-05
4 *229:X 0.000181225
5 *43:24 0.000327509
6 *43:12 0.000481508
7 *232:A *44:10 8.65961e-05
8 *232:A *44:19 3.66286e-05
9 *232:A *94:38 7.10578e-05
10 *43:12 *224:B 8.53113e-06
11 *43:12 *94:64 0.000113797
12 *43:24 *241:A2 2.75229e-05
13 *43:24 *241:B1_N 0.000108224
14 *43:24 *242:A2 0.000121023
15 *43:24 *242:B1 0.0005841
16 *43:24 *44:19 4.66108e-05
17 *43:24 *94:38 2.16917e-05
18 *229:B1 *43:12 3.86126e-05
19 *36:63 *43:24 0.000135234
*RES
1 *229:X *43:12 8.12 
2 *43:12 *43:24 12.415 
3 *43:24 *232:A 2.74 
4 *43:24 *231:A 1.6 
5 *43:12 *242:A3 1.6 
*END

*D_NET *44 0.0021916
*CONN
*I *242:A2 I *D sky130_fd_sc_hd__o31ai_4
*I *231:B I *D sky130_fd_sc_hd__nand2_1
*I *232:B I *D sky130_fd_sc_hd__or2_1
*I *230:X O *D sky130_fd_sc_hd__xor2_1
*CAP
1 *242:A2 0.000226021
2 *231:B 0
3 *232:B 0
4 *230:X 0.000178364
5 *44:19 0.000309373
6 *44:10 0.000261716
7 *242:A2 *241:B1_N 4.49945e-05
8 *242:A2 *242:A1 9.50342e-06
9 *242:A2 *94:38 0.000145184
10 *44:10 *230:A 8.65905e-05
11 *44:10 *241:A1 0.000112349
12 *44:10 *46:8 4.80182e-05
13 *44:10 *87:41 4.99619e-05
14 *44:10 *94:38 0.000271729
15 *44:19 *94:38 1.12578e-05
16 *232:A *44:10 8.65961e-05
17 *232:A *44:19 3.66286e-05
18 *278:A *242:A2 0.000145675
19 *36:63 *242:A2 0
20 *43:24 *242:A2 0.000121023
21 *43:24 *44:19 4.66108e-05
*RES
1 *230:X *44:10 6.565 
2 *44:10 *232:B 1.6 
3 *44:10 *44:19 1.5 
4 *44:19 *231:B 1.6 
5 *44:19 *242:A2 10.805 
*END

*D_NET *45 0.000769651
*CONN
*I *234:A2 I *D sky130_fd_sc_hd__a31o_1
*I *231:Y O *D sky130_fd_sc_hd__nand2_1
*CAP
1 *234:A2 0.000168118
2 *231:Y 0.000168118
3 *234:A2 *272:CLK 0.000118513
4 *234:A2 *82:55 0.000118527
5 *234:A2 *94:38 0.000196376
*RES
1 *231:Y *234:A2 10.41 
*END

*D_NET *46 0.00107743
*CONN
*I *237:B1 I *D sky130_fd_sc_hd__o21ai_1
*I *234:A3 I *D sky130_fd_sc_hd__a31o_1
*I *232:X O *D sky130_fd_sc_hd__or2_1
*CAP
1 *237:B1 6.8655e-05
2 *234:A3 0.000186965
3 *232:X 9.19792e-05
4 *46:8 0.000347599
5 *234:A3 *241:A1 5.10587e-05
6 *234:A3 *82:55 8.41157e-05
7 *234:A3 *87:32 0
8 *234:A3 *94:25 1.38025e-05
9 *237:B1 *241:A1 8.59365e-05
10 *237:B1 *82:55 5.13029e-05
11 *237:A2 *237:B1 1.34361e-05
12 *272:D *234:A3 3.45588e-05
13 *44:10 *46:8 4.80182e-05
*RES
1 *232:X *46:8 4.74 
2 *46:8 *234:A3 7.395 
3 *46:8 *237:B1 5.235 
*END

*D_NET *47 0.000720449
*CONN
*I *234:B1 I *D sky130_fd_sc_hd__a31o_1
*I *233:X O *D sky130_fd_sc_hd__a22o_1
*CAP
1 *234:B1 0.000270266
2 *233:X 0.000270266
3 *234:B1 *233:A1 0
4 *234:B1 *272:CLK 0
5 *234:B1 *82:55 0
6 *234:A1 *234:B1 8.8266e-05
7 *272:D *234:B1 5.50222e-05
8 *36:48 *234:B1 3.66286e-05
*RES
1 *233:X *234:B1 11.76 
*END

*D_NET *48 0.00154015
*CONN
*I *236:A I *D sky130_fd_sc_hd__inv_2
*I *238:A1 I *D sky130_fd_sc_hd__o21ai_1
*I *239:A1 I *D sky130_fd_sc_hd__a21oi_1
*I *235:Y O *D sky130_fd_sc_hd__xnor2_1
*CAP
1 *236:A 6.14294e-05
2 *238:A1 0
3 *239:A1 0.000179168
4 *235:Y 0
5 *48:23 0.000318726
6 *48:4 0.000436465
7 *239:A1 *88:18 7.23602e-05
8 *48:23 *239:B1 8.65905e-05
9 *48:23 *281:A 0.00026784
10 count[3] *239:A1 1.88656e-05
11 *36:63 *236:A 8.40213e-05
12 *36:63 *48:23 1.46828e-05
*RES
1 *235:Y *48:4 1.6 
2 *48:4 *239:A1 7.955 
3 *48:4 *48:23 4.62 
4 *48:23 *238:A1 1.6 
5 *48:23 *236:A 2.74 
*END

*D_NET *49 0.000574711
*CONN
*I *242:A1 I *D sky130_fd_sc_hd__o31ai_4
*I *236:Y O *D sky130_fd_sc_hd__inv_2
*CAP
1 *242:A1 0.000247218
2 *236:Y 0.000247218
3 *242:A2 *242:A1 9.50342e-06
4 *278:A *242:A1 7.07722e-05
5 *36:63 *242:A1 0
*RES
1 *236:Y *242:A1 10.665 
*END

*D_NET *50 0.00166838
*CONN
*I *239:A2 I *D sky130_fd_sc_hd__a21oi_1
*I *238:A2 I *D sky130_fd_sc_hd__o21ai_1
*I *237:Y O *D sky130_fd_sc_hd__o21ai_1
*CAP
1 *239:A2 0.000240781
2 *238:A2 0.000178254
3 *237:Y 2.78674e-05
4 *50:8 0.000446902
5 *238:A2 *281:A 5.78185e-05
6 *239:A2 *239:B1 0.000237243
7 *239:A2 *240:C1 2.11084e-05
8 *239:A2 *282:A 8.77811e-05
9 *239:A2 *82:12 0.000222813
10 *50:8 *282:A 2.87867e-05
11 *50:8 *82:12 7.23533e-05
12 *36:63 *238:A2 4.66742e-05
*RES
1 *237:Y *50:8 4.47 
2 *50:8 *238:A2 5.775 
3 *50:8 *239:A2 9.465 
*END

*D_NET *51 0.00105131
*CONN
*I *239:B1 I *D sky130_fd_sc_hd__a21oi_1
*I *238:Y O *D sky130_fd_sc_hd__o21ai_1
*CAP
1 *239:B1 0.000245237
2 *238:Y 0.000245237
3 *239:B1 *273:CLK 2.92496e-05
4 *239:B1 *79:6 8.23457e-05
5 *239:B1 *82:12 9.30717e-05
6 *239:A2 *239:B1 0.000237243
7 *36:71 *239:B1 3.23391e-05
8 *48:23 *239:B1 8.65905e-05
*RES
1 *238:Y *239:B1 11.985 
*END

*D_NET *52 0.000376126
*CONN
*I *240:C1 I *D sky130_fd_sc_hd__a221o_1
*I *239:Y O *D sky130_fd_sc_hd__a21oi_1
*CAP
1 *240:C1 0.000104446
2 *239:Y 0.000104446
3 *240:C1 *282:A 7.18805e-05
4 *240:C1 *88:18 7.42457e-05
5 *239:A2 *240:C1 2.11084e-05
*RES
1 *239:Y *240:C1 9.285 
*END

*D_NET *53 0.00160574
*CONN
*I *242:B1 I *D sky130_fd_sc_hd__o31ai_4
*I *241:Y O *D sky130_fd_sc_hd__o21bai_1
*CAP
1 *242:B1 0.000510821
2 *241:Y 0.000510821
3 *43:24 *242:B1 0.0005841
*RES
1 *241:Y *242:B1 10.13 
*END

*D_NET *54 0.00282749
*CONN
*I *246:A I *D sky130_fd_sc_hd__or2_1
*I *260:A1 I *D sky130_fd_sc_hd__a31o_1
*I *251:A1 I *D sky130_fd_sc_hd__a21o_1
*I *247:A I *D sky130_fd_sc_hd__nand2_1
*I *242:Y O *D sky130_fd_sc_hd__o31ai_4
*CAP
1 *246:A 0.000110475
2 *260:A1 0
3 *251:A1 0.000117922
4 *247:A 5.64078e-05
5 *242:Y 0.000193871
6 *54:30 0.000129138
7 *54:19 0.000241491
8 *54:6 0.000355185
9 *246:A *246:B 0.000283894
10 *246:A *260:A3 1.34361e-05
11 *246:A *260:B1 0.000118513
12 *246:A *275:CLK 1.01661e-05
13 *246:A *62:14 4.84393e-05
14 *246:A *90:18 0.000158072
15 *247:A *247:B 0
16 *247:A *280:A 4.99619e-05
17 *247:A *57:19 4.99619e-05
18 *251:A1 *251:A2 0.000123225
19 *251:A1 *251:B1 5.83121e-06
20 *251:A1 *62:14 2.19562e-06
21 *54:6 *280:A 2.96426e-05
22 *54:6 *57:6 0.000162311
23 *54:6 *57:19 0.000124895
24 *54:19 *275:CLK 0.000101364
25 *54:19 *57:19 0.000268292
26 *54:30 *246:B 9.50342e-06
27 *54:30 *275:CLK 1.94892e-05
28 *54:30 *57:19 4.38051e-05
*RES
1 *242:Y *54:6 5.155 
2 *54:6 *247:A 3.01 
3 *54:6 *54:19 5.165 
4 *54:19 *251:A1 5.085 
5 *54:19 *54:30 0.615 
6 *54:30 *260:A1 3.6 
7 *54:30 *246:A 7.74 
*END

*D_NET *55 0.00168984
*CONN
*I *251:B1 I *D sky130_fd_sc_hd__a21o_1
*I *245:A I *D sky130_fd_sc_hd__nor2_1
*I *243:X O *D sky130_fd_sc_hd__and2b_1
*CAP
1 *251:B1 0.000268425
2 *245:A 0.000293897
3 *243:X 0
4 *55:4 0.000562322
5 *245:A *245:B 7.63125e-05
6 *245:A *249:A3 1.83847e-05
7 *245:A *259:A1 4.13171e-05
8 *245:A *275:CLK 0
9 *245:A *280:A 1.06226e-05
10 *245:A *57:19 0
11 *245:A *89:18 1.17309e-05
12 *245:A *89:22 2.66586e-05
13 *245:A *94:90 5.83121e-06
14 *245:A *94:103 7.73272e-05
15 *251:B1 *249:A2 6.10014e-05
16 *251:B1 *249:A3 8.4546e-05
17 *251:B1 *275:CLK 0.000113797
18 *251:B1 *62:14 3.1835e-05
19 *251:A1 *251:B1 5.83121e-06
*RES
1 *243:X *55:4 1.6 
2 *55:4 *245:A 10.34 
3 *55:4 *251:B1 9.95 