*SPEF "ieee 1481-1999"
*DESIGN "counter"
*DATE "12:42:41 Wednesday December 04, 2024"
*VENDOR "The OpenROAD Project"
*PROGRAM "OpenROAD"
*VERSION "b16bda7e82721d10566ff7e2b68f1ff0be9f9e38"
*DESIGN_FLOW "NAME_SCOPE LOCAL" "PIN_CAP NONE"
*DIVIDER /
*DELIMITER :
*BUS_DELIMITER []
*T_UNIT 1 NS
*C_UNIT 1 PF
*R_UNIT 1 OHM
*L_UNIT 1 HENRY

*NAME_MAP
*3 clk
*4 count[0]
*5 count[1]
*6 count[2]
*7 count[3]
*8 count[4]
*9 count[5]
*10 count[6]
*11 count[7]
*12 data[0]
*13 data[1]
*14 data[2]
*15 data[3]
*16 data[4]
*17 data[5]
*18 data[6]
*19 data[7]
*20 enable
*21 preload
*22 resetn
*23 up_down
*24 _000_
*25 _001_
*26 _002_
*27 _003_
*28 _004_
*29 _005_
*30 _006_
*31 _007_
*32 _008_
*33 _009_
*34 _010_
*35 _011_
*36 _012_
*37 _013_
*38 _014_
*39 _015_
*40 _016_
*41 _017_
*42 _018_
*43 _019_
*44 _020_
*45 _021_
*46 _022_
*47 _023_
*48 _024_
*49 _025_
*50 _026_
*51 _027_
*52 _028_
*53 _029_
*54 _030_
*55 _031_
*56 _032_
*57 _033_
*58 _034_
*59 _035_
*60 _036_
*61 _037_
*62 _038_
*63 _039_
*64 _040_
*65 _041_
*66 _042_
*67 _043_
*68 _044_
*69 _045_
*70 _046_
*71 _047_
*72 _048_
*73 _049_
*74 _050_
*75 _051_
*76 _052_
*77 _053_
*78 clknet_0_clk
*79 clknet_1_0__leaf_clk
*80 clknet_1_1__leaf_clk
*81 net1
*82 net10
*83 net11
*84 net12
*85 net13
*86 net14
*87 net15
*88 net16
*89 net17
*90 net18
*91 net19
*92 net2
*93 net20
*94 net21
*95 net22
*96 net23
*97 net24
*98 net25
*99 net26
*100 net27
*101 net28
*102 net29
*103 net3
*104 net30
*105 net4
*106 net5
*107 net6
*108 net7
*109 net8
*110 net9
*111 FILLER_0_0_22
*112 FILLER_0_0_27
*113 FILLER_0_0_29
*114 FILLER_0_0_3
*115 FILLER_0_0_55
*116 FILLER_0_0_57
*117 FILLER_0_0_77
*118 FILLER_0_10_10
*119 FILLER_0_10_18
*120 FILLER_0_10_26
*121 FILLER_0_10_29
*122 FILLER_0_10_33
*123 FILLER_0_10_56
*124 FILLER_0_10_68
*125 FILLER_0_11_14
*126 FILLER_0_11_22
*127 FILLER_0_11_30
*128 FILLER_0_11_51
*129 FILLER_0_11_55
*130 FILLER_0_11_57
*131 FILLER_0_11_69
*132 FILLER_0_11_77
*133 FILLER_0_12_15
*134 FILLER_0_12_27
*135 FILLER_0_12_29
*136 FILLER_0_12_3
*137 FILLER_0_12_37
*138 FILLER_0_12_44
*139 FILLER_0_12_48
*140 FILLER_0_12_57
*141 FILLER_0_12_69
*142 FILLER_0_12_77
*143 FILLER_0_1_44
*144 FILLER_0_1_55
*145 FILLER_0_1_57
*146 FILLER_0_2_13
*147 FILLER_0_2_21
*148 FILLER_0_2_27
*149 FILLER_0_2_36
*150 FILLER_0_2_69
*151 FILLER_0_2_7
*152 FILLER_0_3_10
*153 FILLER_0_3_45
*154 FILLER_0_3_55
*155 FILLER_0_3_64
*156 FILLER_0_4_18
*157 FILLER_0_4_26
*158 FILLER_0_4_3
*159 FILLER_0_5_12
*160 FILLER_0_5_17
*161 FILLER_0_5_42
*162 FILLER_0_6_14
*163 FILLER_0_6_26
*164 FILLER_0_6_29
*165 FILLER_0_6_57
*166 FILLER_0_6_76
*167 FILLER_0_7_38
*168 FILLER_0_7_52
*169 FILLER_0_7_68
*170 FILLER_0_8_14
*171 FILLER_0_8_26
*172 FILLER_0_8_3
*173 FILLER_0_9_24
*174 FILLER_0_9_3
*175 FILLER_0_9_50
*176 FILLER_0_9_57
*177 PHY_EDGE_ROW_0_Left_13
*178 PHY_EDGE_ROW_0_Right_0
*179 PHY_EDGE_ROW_10_Left_23
*180 PHY_EDGE_ROW_10_Right_10
*181 PHY_EDGE_ROW_11_Left_24
*182 PHY_EDGE_ROW_11_Right_11
*183 PHY_EDGE_ROW_12_Left_25
*184 PHY_EDGE_ROW_12_Right_12
*185 PHY_EDGE_ROW_1_Left_14
*186 PHY_EDGE_ROW_1_Right_1
*187 PHY_EDGE_ROW_2_Left_15
*188 PHY_EDGE_ROW_2_Right_2
*189 PHY_EDGE_ROW_3_Left_16
*190 PHY_EDGE_ROW_3_Right_3
*191 PHY_EDGE_ROW_4_Left_17
*192 PHY_EDGE_ROW_4_Right_4
*193 PHY_EDGE_ROW_5_Left_18
*194 PHY_EDGE_ROW_5_Right_5
*195 PHY_EDGE_ROW_6_Left_19
*196 PHY_EDGE_ROW_6_Right_6
*197 PHY_EDGE_ROW_7_Left_20
*198 PHY_EDGE_ROW_7_Right_7
*199 PHY_EDGE_ROW_8_Left_21
*200 PHY_EDGE_ROW_8_Right_8
*201 PHY_EDGE_ROW_9_Left_22
*202 PHY_EDGE_ROW_9_Right_9
*203 TAP_TAPCELL_ROW_0_26
*204 TAP_TAPCELL_ROW_0_27
*205 TAP_TAPCELL_ROW_10_37
*206 TAP_TAPCELL_ROW_11_38
*207 TAP_TAPCELL_ROW_12_39
*208 TAP_TAPCELL_ROW_12_40
*209 TAP_TAPCELL_ROW_1_28
*210 TAP_TAPCELL_ROW_2_29
*211 TAP_TAPCELL_ROW_3_30
*212 TAP_TAPCELL_ROW_4_31
*213 TAP_TAPCELL_ROW_5_32
*214 TAP_TAPCELL_ROW_6_33
*215 TAP_TAPCELL_ROW_7_34
*216 TAP_TAPCELL_ROW_8_35
*217 TAP_TAPCELL_ROW_9_36
*218 _054_
*219 _055_
*220 _056_
*221 _057_
*222 _058_
*223 _059_
*224 _060_
*225 _061_
*226 _062_
*227 _063_
*228 _064_
*229 _065_
*230 _066_
*231 _067_
*232 _068_
*233 _069_
*234 _070_
*235 _071_
*236 _072_
*237 _073_
*238 _074_
*239 _075_
*240 _076_
*241 _077_
*242 _078_
*243 _079_
*244 _080_
*245 _081_
*246 _082_
*247 _083_
*248 _084_
*249 _085_
*250 _086_
*251 _087_
*252 _088_
*253 _089_
*254 _090_
*255 _091_
*256 _092_
*257 _093_
*258 _094_
*259 _095_
*260 _096_
*261 _097_
*262 _098_
*263 _099_
*264 _100_
*265 _101_
*266 _102_
*267 _103_
*268 _104_
*269 _105_
*270 _106_
*271 _107_
*272 _108_
*273 _109_
*274 _110_
*275 _111_
*276 _112_
*277 _113_
*278 _114_
*279 _115_
*280 clkbuf_0_clk
*281 clkbuf_1_0__f_clk
*282 clkbuf_1_1__f_clk
*283 clkload0
*284 clone7
*285 fanout21
*286 hold8
*287 hold9
*288 input1
*289 input10
*290 input11
*291 input12
*292 input2
*293 input3
*294 input4
*295 input5
*296 input6
*297 input7
*298 input8
*299 input9
*300 output13
*301 output14
*302 output15
*303 output16
*304 output17
*305 output18
*306 output19
*307 output20
*308 rebuffer1
*309 rebuffer2
*310 rebuffer3
*311 rebuffer4
*312 rebuffer5
*313 rebuffer6

*PORTS
clk I
count[0] O
count[1] O
count[2] O
count[3] O
count[4] O
count[5] O
count[6] O
count[7] O
data[0] I
data[1] I
data[2] I
data[3] I
data[4] I
data[5] I
data[6] I
data[7] I
enable I
preload I
resetn I
up_down I

*D_NET *3 0.00476257
*CONN
*P clk I
*I *280:A I *D sky130_fd_sc_hd__clkbuf_16
*CAP
1 clk 0.00217238
2 *280:A 0
3 *3:13 0.00217238
4 *3:13 count[2] 1.5289e-05
5 *3:13 count[3] 0
6 *3:13 *246:B 0.000141879
7 *3:13 *276:CLK 0
8 *3:13 *6:14 1.59585e-05
9 *3:13 *21:13 3.49463e-05
10 *3:13 *49:10 0
11 *3:13 *97:8 0
12 *3:13 *101:10 0.000209748
*RES
1 clk *3:13 35.1007 
2 *3:13 *280:A 23 
*END

*D_NET *4 0.00134564
*CONN
*P count[0] O
*I *300:X O *D sky130_fd_sc_hd__buf_2
*CAP
1 count[0] 0.000609557
2 *300:X 0.000609557
3 count[0] *286:A 0.000104477
4 count[0] *39:34 2.20458e-05
5 count[0] *85:25 0
*RES
1 *300:X count[0] 48.556 
*END

*D_NET *5 0.00248516
*CONN
*P count[1] O
*I *301:X O *D sky130_fd_sc_hd__buf_2
*CAP
1 count[1] 0.000539406
2 *301:X 0.000238679
3 *5:8 0.000778085
4 count[1] *229:A1 0
5 count[1] *13:13 0
6 count[1] *42:10 2.96051e-05
7 count[1] *82:24 0
8 *5:8 *229:A1 2.4754e-05
9 *5:8 *301:A 0.000137651
10 *5:8 *25:10 5.56356e-05
11 *5:8 *32:18 0.000180218
12 *5:8 *35:40 2.98648e-05
13 *5:8 *35:42 1.22822e-05
14 *5:8 *42:10 0.000144501
15 *5:8 *92:10 0.000314482
*RES
1 *301:X *5:8 44.815 
2 *5:8 count[1] 10.6471 
*END

*D_NET *6 0.000676914
*CONN
*P count[2] O
*I *302:X O *D sky130_fd_sc_hd__buf_2
*CAP
1 count[2] 8.68308e-05
2 *302:X 0.000236002
3 *6:14 0.000322833
4 *3:13 count[2] 1.5289e-05
5 *3:13 *6:14 1.59585e-05
*RES
1 *302:X *6:14 49.9 
2 *6:14 count[2] 0.382667 
*END

*D_NET *7 0.000877338
*CONN
*P count[3] O
*I *303:X O *D sky130_fd_sc_hd__buf_2
*CAP
1 count[3] 0.000321562
2 *303:X 0.000321562
3 count[3] *237:A 7.76035e-05
4 count[3] *285:A 0
5 count[3] *15:17 5.11907e-05
6 count[3] *21:13 3.25681e-05
7 count[3] *88:12 7.28526e-05
8 *3:13 count[3] 0
*RES
1 *303:X count[3] 49.9819 
*END

*D_NET *8 0.000934661
*CONN
*P count[4] O
*I *304:X O *D sky130_fd_sc_hd__buf_2
*CAP
1 count[4] 0.000356062
2 *304:X 0.000356062
3 count[4] count[5] 0
4 count[4] *221:B 2.46922e-05
5 count[4] *296:A 7.1481e-05
6 count[4] *20:11 0.000103724
7 count[4] *82:84 2.26406e-05
*RES
1 *304:X count[4] 47.5083 
*END

*D_NET *9 0.000591579
*CONN
*P count[5] O
*I *305:X O *D sky130_fd_sc_hd__buf_2
*CAP
1 count[5] 0.000223924
2 *305:X 0.000223924
3 count[5] *296:A 6.91091e-05
4 count[5] *35:123 7.46212e-05
5 count[4] count[5] 0
*RES
1 *305:X count[5] 47.7832 
*END

*D_NET *10 0.00110707
*CONN
*P count[6] O
*I *306:X O *D sky130_fd_sc_hd__clkbuf_4
*CAP
1 count[6] 0.000546561
2 *306:X 0.000546561
3 count[6] *297:A 0
4 count[6] *306:A 1.39431e-05
*RES
1 *306:X count[6] 49.4964 
*END

*D_NET *11 0.000570226
*CONN
*P count[7] O
*I *307:X O *D sky130_fd_sc_hd__buf_2
*CAP
1 count[7] 0.000259307
2 *307:X 0.000259307
3 count[7] *19:17 2.79122e-05
4 count[7] *23:11 0
5 count[7] *93:25 2.36993e-05
*RES
1 *307:X count[7] 47.5169 
*END

*D_NET *12 0.00277998
*CONN
*P data[0] I
*I *288:A I *D sky130_fd_sc_hd__clkbuf_1
*CAP
1 data[0] 0.000950303
2 *288:A 0
3 *12:11 0.000950303
4 *12:11 *24:8 3.96156e-05
5 *12:11 *32:18 4.18957e-05
6 *12:11 *35:28 1.03836e-05
7 *12:11 *35:40 2.93845e-05
8 *12:11 *36:97 0.000155091
9 *12:11 *37:8 0
10 *12:11 *82:24 0
11 *12:11 *82:47 0.000168423
12 *12:11 *82:62 0.000123934
13 *12:11 *83:16 0.000310647
*RES
1 data[0] *12:11 36.1286 
2 *12:11 *288:A 23 
*END

*D_NET *13 0.0013743
*CONN
*P data[1] I
*I *292:A I *D sky130_fd_sc_hd__clkbuf_1
*CAP
1 data[1] 0.00068715
2 *292:A 0
3 *13:13 0.00068715
4 *13:13 *82:24 0
5 count[1] *13:13 0
*RES
1 data[1] *13:13 43.2779 
2 *13:13 *292:A 38 
*END

*D_NET *14 0.00118015
*CONN
*P data[2] I
*I *293:A I *D sky130_fd_sc_hd__clkbuf_1
*CAP
1 data[2] 0.000523124
2 *293:A 0.000523124
3 *293:A *235:A2 5.50106e-05
4 *293:A *35:42 7.88926e-05
5 *293:A *82:14 0
6 *293:A *82:24 0
*RES
1 data[2] *293:A 49.1236 
*END

*D_NET *15 0.00175239
*CONN
*P data[3] I
*I *294:A I *D sky130_fd_sc_hd__clkbuf_1
*CAP
1 data[3] 0.000661252
2 *294:A 0
3 *15:17 0.000661252
4 *15:17 *242:B2 3.43492e-05
5 *15:17 *270:A1 3.70187e-05
6 *15:17 *23:11 5.32136e-05
7 *15:17 *35:66 5.52485e-06
8 *15:17 *36:61 0
9 *15:17 *52:10 0
10 *15:17 *82:123 0.000111852
11 *15:17 *84:29 9.5877e-05
12 *15:17 *105:8 4.08641e-05
13 count[3] *15:17 5.11907e-05
*RES
1 data[3] *15:17 47.1692 
2 *15:17 *294:A 38 
*END

*D_NET *16 0.00119481
*CONN
*P data[4] I
*I *295:A I *D sky130_fd_sc_hd__clkbuf_1
*CAP
1 data[4] 0.000401621
2 *295:A 0
3 *16:13 0.000401621
4 *16:13 *286:A 0
5 *16:13 *20:11 9.36375e-05
6 *16:13 *82:62 1.12487e-05
7 *16:13 *83:6 3.22879e-05
8 *16:13 *83:53 0
9 *16:13 *89:8 5.58152e-06
10 *16:13 *102:8 2.76611e-06
11 *16:13 *106:10 0.000246046
*RES
1 data[4] *16:13 28.3935 
2 *16:13 *295:A 23 
*END

*D_NET *17 0.000459217
*CONN
*P data[5] I
*I *296:A I *D sky130_fd_sc_hd__clkbuf_1
*CAP
1 data[5] 0.00014217
2 *296:A 0.00014217
3 *296:A *35:100 6.07611e-06
4 *296:A *35:123 2.82105e-05
5 count[4] *296:A 7.1481e-05
6 count[5] *296:A 6.91091e-05
*RES
1 data[5] *296:A 47.3452 
*END

*D_NET *18 0.00113649
*CONN
*P data[6] I
*I *297:A I *D sky130_fd_sc_hd__clkbuf_1
*CAP
1 data[6] 0.000565157
2 *297:A 0.000565157
3 *297:A *108:14 6.17437e-06
4 count[6] *297:A 0
*RES
1 data[6] *297:A 49.7864 
*END

*D_NET *19 0.000684707
*CONN
*P data[7] I
*I *298:A I *D sky130_fd_sc_hd__clkbuf_1
*CAP
1 data[7] 0.000317774
2 *298:A 0
3 *19:17 0.000317774
4 *19:17 *23:11 2.12457e-05
5 *19:17 *93:25 0
6 count[7] *19:17 2.79122e-05
*RES
1 data[7] *19:17 27.5105 
2 *19:17 *298:A 23 
*END

*D_NET *20 0.00248677
*CONN
*P enable I
*I *299:A I *D sky130_fd_sc_hd__clkbuf_1
*CAP
1 enable 0.000659791
2 *299:A 0
3 *20:11 0.000659791
4 *20:11 *28:10 0
5 *20:11 *33:10 0
6 *20:11 *35:28 0.000300098
7 *20:11 *58:8 0.00012323
8 *20:11 *83:53 0.000168754
9 *20:11 *83:60 0.000377749
10 count[4] *20:11 0.000103724
11 *16:13 *20:11 9.36375e-05
*RES
1 enable *20:11 31.8087 
2 *20:11 *299:A 23 
*END

*D_NET *21 0.000849163
*CONN
*P preload I
*I *289:A I *D sky130_fd_sc_hd__buf_2
*CAP
1 preload 0.000390824
2 *289:A 0
3 *21:13 0.000390824
4 *21:13 *94:10 0
5 count[3] *21:13 3.25681e-05
6 *3:13 *21:13 3.49463e-05
*RES
1 preload *21:13 29.1389 
2 *21:13 *289:A 23 
*END

*D_NET *22 0.000764608
*CONN
*P resetn I
*I *286:A I *D sky130_fd_sc_hd__dlygate4sd3_1
*CAP
1 resetn 0.000323338
2 *286:A 0.000323338
3 *286:A *272:RESET_B 1.34542e-05
4 count[0] *286:A 0.000104477
5 *16:13 *286:A 0
*RES
1 resetn *286:A 47.5083 
*END

*D_NET *23 0.00157224
*CONN
*P up_down I
*I *291:A I *D sky130_fd_sc_hd__clkbuf_2
*CAP
1 up_down 0.000466302
2 *291:A 0
3 *23:11 0.000466302
4 *23:11 *270:B2 0.000125339
5 *23:11 *84:8 0.000186765
6 *23:11 *93:25 0.00025307
7 count[7] *23:11 0
8 *15:17 *23:11 5.32136e-05
9 *19:17 *23:11 2.12457e-05
*RES
1 up_down *23:11 29.0003 
2 *23:11 *291:A 23 
*END

*D_NET *24 0.000265685
*CONN
*I *272:D I *D sky130_fd_sc_hd__dfrtp_1
*I *224:Y O *D sky130_fd_sc_hd__a21oi_1
*CAP
1 *272:D 0
2 *224:Y 7.32904e-05
3 *24:8 7.32904e-05
4 *24:8 *32:18 1.01436e-05
5 *24:8 *37:8 6.93449e-05
6 *12:11 *24:8 3.96156e-05
*RES
1 *224:Y *24:8 39.9057 
2 *24:8 *272:D 38 
*END

*D_NET *25 0.000456322
*CONN
*I *273:D I *D sky130_fd_sc_hd__dfrtp_1
*I *230:X O *D sky130_fd_sc_hd__a21o_1
*CAP
1 *273:D 0
2 *230:X 0.000183739
3 *25:10 0.000183739
4 *25:10 *42:10 1.00084e-05
5 *25:10 *92:10 2.32004e-05
6 *5:8 *25:10 5.56356e-05
*RES
1 *230:X *25:10 41.0036 
2 *25:10 *273:D 38 
*END

*D_NET *26 0.000309176
*CONN
*I *274:D I *D sky130_fd_sc_hd__dfrtp_2
*I *236:X O *D sky130_fd_sc_hd__a31o_1
*CAP
1 *274:D 0
2 *236:X 3.93847e-05
3 *26:8 3.93847e-05
4 *26:8 *47:8 0.000116314
5 *26:8 *83:34 0.000114092
*RES
1 *236:X *26:8 39.5536 
2 *26:8 *274:D 38 
*END

*D_NET *27 0.0011274
*CONN
*I *275:D I *D sky130_fd_sc_hd__dfrtp_1
*I *242:X O *D sky130_fd_sc_hd__a221o_1
*CAP
1 *275:D 0
2 *242:X 0.000245598
3 *27:8 0.000245598
4 *27:8 *35:54 3.91386e-05
5 *27:8 *84:29 0.000317078
6 *27:8 *88:6 3.22879e-05
7 *27:8 *88:45 0.000247704
*RES
1 *242:X *27:8 31.7414 
2 *27:8 *275:D 23 
*END

*D_NET *28 0.000637913
*CONN
*I *276:D I *D sky130_fd_sc_hd__dfrtp_1
*I *251:X O *D sky130_fd_sc_hd__a31o_1
*CAP
1 *276:D 0
2 *251:X 0.000175922
3 *28:10 0.000175922
4 *28:10 *251:A3 0.00014196
5 *28:10 *54:26 0
6 *28:10 *98:8 0.00014411
7 *28:10 *100:8 0
8 *20:11 *28:10 0
*RES
1 *251:X *28:10 41.8321 
2 *28:10 *276:D 38 
*END

*D_NET *29 0.000234691
*CONN
*I *277:D I *D sky130_fd_sc_hd__dfrtp_1
*I *257:X O *D sky130_fd_sc_hd__a31o_1
*CAP
1 *277:D 0
2 *257:X 0.000117345
3 *29:8 0.000117345
4 *29:8 *282:A 0
5 *29:8 *36:40 0
*RES
1 *257:X *29:8 39.9057 
2 *29:8 *277:D 38 
*END

*D_NET *30 0.00111703
*CONN
*I *278:D I *D sky130_fd_sc_hd__dfrtp_1
*I *266:X O *D sky130_fd_sc_hd__a31o_1
*CAP
1 *278:D 0.000176586
2 *266:X 0.000153356
3 *30:8 0.000329942
4 *278:D *82:133 2.20513e-06
5 *278:D *90:26 6.17437e-06
6 *278:D *101:76 2.42041e-05
7 *30:8 *70:14 0.00021356
8 *30:8 *80:19 0.000136486
9 *30:8 *84:53 7.45175e-05
*RES
1 *266:X *30:8 42.0186 
2 *30:8 *278:D 39.9575 
*END

*D_NET *31 0.000978326
*CONN
*I *279:D I *D sky130_fd_sc_hd__dfrtp_1
*I *271:X O *D sky130_fd_sc_hd__a21o_1
*CAP
1 *279:D 0.000314747
2 *271:X 4.97384e-05
3 *31:8 0.000364485
4 *279:D *279:RESET_B 0.000180591
5 *31:8 *77:10 4.08641e-05
6 *31:8 *84:8 2.79004e-05
*RES
1 *271:X *31:8 39.2014 
2 *31:8 *279:D 42.4536 
*END

*D_NET *32 0.006072
*CONN
*I *223:B2 I *D sky130_fd_sc_hd__a22o_1
*I *228:A1 I *D sky130_fd_sc_hd__o21a_1
*I *231:A2 I *D sky130_fd_sc_hd__o21a_1
*I *227:A I *D sky130_fd_sc_hd__nand2_1
*I *218:Y O *D sky130_fd_sc_hd__inv_2
*CAP
1 *223:B2 0.000236198
2 *228:A1 0
3 *231:A2 0
4 *227:A 2.69988e-05
5 *218:Y 0.000114006
6 *32:41 0.000178931
7 *32:33 0.000311735
8 *32:29 0.000528665
9 *32:18 0.000508079
10 *32:8 0.00075475
11 *223:B2 *35:40 0.000103647
12 *223:B2 *78:12 9.04083e-05
13 *223:B2 *79:43 7.34962e-05
14 *223:B2 *82:62 4.00259e-06
15 *223:B2 *83:16 0.000354127
16 *223:B2 *94:53 2.93845e-05
17 *223:B2 *95:10 2.46345e-05
18 *227:A *224:B1 5.67058e-05
19 *227:A *104:8 9.84851e-05
20 *32:8 *218:A 9.58714e-05
21 *32:8 *79:14 5.14746e-06
22 *32:18 *301:A 8.62783e-05
23 *32:18 *37:8 2.01531e-05
24 *32:18 *40:10 0.000270753
25 *32:18 *96:10 8.4047e-05
26 *32:29 *301:A 7.93051e-05
27 *32:29 *35:40 0
28 *32:29 *78:12 1.58805e-05
29 *32:29 *82:47 6.57551e-05
30 *32:29 *95:10 0.000212621
31 *32:29 *96:10 1.01436e-05
32 *32:33 *228:A2 7.87147e-05
33 *32:33 *36:97 2.02872e-05
34 *32:33 *39:34 4.65414e-05
35 *32:33 *78:12 0.000136738
36 *32:33 *95:10 0.000352684
37 *32:41 *36:76 9.59638e-05
38 *32:41 *83:16 0
39 *32:41 *83:34 0.000251781
40 *32:41 *86:19 0.000140949
41 *32:41 *95:10 0.000275875
42 *5:8 *32:18 0.000180218
43 *12:11 *32:18 4.18957e-05
44 *24:8 *32:18 1.01436e-05
*RES
1 *218:Y *32:8 39.5743 
2 *32:8 *32:18 37.7886 
3 *32:18 *227:A 39.0979 
4 *32:8 *32:29 4.01857 
5 *32:29 *32:33 19.4329 
6 *32:33 *32:41 36.815 
7 *32:41 *231:A2 23 
8 *32:33 *228:A1 23 
9 *32:29 *223:B2 45.0636 
*END

*D_NET *33 0.000886259
*CONN
*I *223:A2 I *D sky130_fd_sc_hd__a22o_1
*I *219:Y O *D sky130_fd_sc_hd__inv_2
*CAP
1 *223:A2 0
2 *219:Y 0.000322254
3 *33:10 0.000322254
4 *33:10 *272:RESET_B 0
5 *33:10 *37:8 4.08641e-05
6 *33:10 *39:34 3.52937e-05
7 *33:10 *82:47 0.000165593
8 *33:10 *83:53 0
9 *20:11 *33:10 0
*RES
1 *219:Y *33:10 43.2614 
2 *33:10 *223:A2 38 
*END

*D_NET *34 0.00032479
*CONN
*I *239:A2 I *D sky130_fd_sc_hd__o21ai_1
*I *220:Y O *D sky130_fd_sc_hd__inv_2
*CAP
1 *239:A2 0.000115038
2 *220:Y 0.000115038
3 *239:A2 *82:14 9.4713e-05
*RES
1 *220:Y *239:A2 48.0507 
*END

*D_NET *35 0.0163587
*CONN
*I *265:B1 I *D sky130_fd_sc_hd__a22o_1
*I *256:B1 I *D sky130_fd_sc_hd__a22o_1
*I *250:B1 I *D sky130_fd_sc_hd__a22o_1
*I *223:B1 I *D sky130_fd_sc_hd__a22o_1
*I *229:B1 I *D sky130_fd_sc_hd__a22o_1
*I *235:B1 I *D sky130_fd_sc_hd__a22o_1
*I *242:B1 I *D sky130_fd_sc_hd__a221o_1
*I *270:B1 I *D sky130_fd_sc_hd__a22o_1
*I *221:Y O *D sky130_fd_sc_hd__nor2_2
*CAP
1 *265:B1 0
2 *256:B1 6.08405e-05
3 *250:B1 0
4 *223:B1 0
5 *229:B1 0
6 *235:B1 0
7 *242:B1 1.58991e-05
8 *270:B1 0
9 *221:Y 4.19603e-05
10 *35:123 0.00134914
11 *35:100 0.00163868
12 *35:66 0.000297948
13 *35:54 0.000362744
14 *35:48 0.00100254
15 *35:42 0.00166624
16 *35:40 0.00138212
17 *35:28 0.00144977
18 *35:12 0.00107394
19 *35:8 0.000564363
20 *242:B1 *242:B2 1.4345e-05
21 *256:B1 *256:A2 0.000141954
22 *256:B1 *256:B2 1.14154e-05
23 *256:B1 *90:18 4.06849e-05
24 *35:8 *221:B 1.24376e-05
25 *35:12 *82:62 7.75329e-06
26 *35:12 *82:73 3.38708e-05
27 *35:12 *82:84 7.41184e-05
28 *35:12 *89:8 4.6318e-06
29 *35:12 *106:10 6.07611e-06
30 *35:28 *250:A1 3.11965e-05
31 *35:28 *251:A1 1.05235e-05
32 *35:28 *251:B1 9.5877e-05
33 *35:28 *82:62 0.000328968
34 *35:28 *89:22 3.25945e-05
35 *35:28 *98:8 0
36 *35:40 *229:A1 5.50049e-05
37 *35:40 *301:A 4.5051e-05
38 *35:40 *36:97 0.000241899
39 *35:40 *40:10 0.000212168
40 *35:40 *55:12 1.14452e-05
41 *35:40 *56:10 1.14452e-05
42 *35:40 *78:12 0.000112823
43 *35:40 *82:47 0.000150159
44 *35:40 *82:62 0
45 *35:40 *83:16 1.03836e-05
46 *35:42 *229:A1 5.67058e-05
47 *35:42 *230:A2 0.000102389
48 *35:42 *230:B1 5.79559e-05
49 *35:42 *235:A2 6.87243e-05
50 *35:42 *40:10 0.000276368
51 *35:42 *92:10 0.000136341
52 *35:48 *235:B2 9.84851e-05
53 *35:48 *236:A3 0.000324861
54 *35:48 *239:B1 0.000157309
55 *35:48 *241:A2 0.000179702
56 *35:48 *36:61 6.0093e-05
57 *35:48 *36:63 1.17049e-05
58 *35:48 *48:14 0.000108681
59 *35:48 *50:10 0.000166522
60 *35:48 *82:14 0
61 *35:48 *82:119 0.000151255
62 *35:48 *87:21 0
63 *35:48 *87:32 0
64 *35:48 *94:10 0
65 *35:48 *101:33 9.63918e-05
66 *35:54 *242:A2 3.49686e-05
67 *35:54 *84:29 5.7428e-05
68 *35:54 *88:6 6.68919e-05
69 *35:66 *242:B2 1.85649e-05
70 *35:66 *285:A 8.62876e-05
71 *35:66 *52:10 6.38845e-05
72 *35:66 *84:8 0.000126343
73 *35:66 *84:29 1.41077e-05
74 *35:66 *88:6 9.75779e-05
75 *35:66 *88:19 0
76 *35:66 *109:8 1.19796e-05
77 *35:100 *256:A1 0
78 *35:100 *82:84 1.09563e-05
79 *35:100 *83:60 0
80 *35:123 *265:A1 1.05441e-05
81 *35:123 *305:A 0.000264329
82 *35:123 *83:60 0
83 *35:123 *84:53 2.82419e-06
84 *35:123 *90:12 0.000111852
85 *35:123 *101:57 5.51181e-06
86 count[5] *35:123 7.46212e-05
87 *223:B2 *35:40 0.000103647
88 *293:A *35:42 7.88926e-05
89 *296:A *35:100 6.07611e-06
90 *296:A *35:123 2.82105e-05
91 *5:8 *35:40 2.98648e-05
92 *5:8 *35:42 1.22822e-05
93 *12:11 *35:28 1.03836e-05
94 *12:11 *35:40 2.93845e-05
95 *15:17 *35:66 5.52485e-06
96 *20:11 *35:28 0.000300098
97 *27:8 *35:54 3.91386e-05
98 *32:29 *35:40 0
*RES
1 *221:Y *35:8 38.6214 
2 *35:8 *35:12 20.075 
3 *35:12 *35:28 43.775 
4 *35:28 *35:40 45.3286 
5 *35:40 *35:42 14.9143 
6 *35:42 *35:48 36.9157 
7 *35:48 *35:54 17.0714 
8 *35:54 *35:66 35.655 
9 *35:66 *270:B1 23 
10 *35:54 *242:B1 23.4971 
11 *35:42 *235:B1 23 
12 *35:40 *229:B1 23 
13 *35:28 *223:B1 23 
14 *35:12 *250:B1 23 
15 *35:8 *35:100 3.31429 
16 *35:100 *256:B1 40.0714 
17 *35:100 *35:123 39.6422 
18 *35:123 *265:B1 23 
*END

*D_NET *36 0.0152434
*CONN
*I *271:A1 I *D sky130_fd_sc_hd__a21o_1
*I *240:B1 I *D sky130_fd_sc_hd__o21ai_1
*I *224:A2 I *D sky130_fd_sc_hd__a21oi_1
*I *228:B1 I *D sky130_fd_sc_hd__o21a_1
*I *236:A1 I *D sky130_fd_sc_hd__a31o_1
*I *266:A1 I *D sky130_fd_sc_hd__a31o_1
*I *257:A1 I *D sky130_fd_sc_hd__a31o_1
*I *251:A1 I *D sky130_fd_sc_hd__a31o_1
*I *222:X O *D sky130_fd_sc_hd__and2b_2
*CAP
1 *271:A1 0
2 *240:B1 0
3 *224:A2 0
4 *228:B1 0
5 *236:A1 4.12801e-05
6 *266:A1 4.0952e-05
7 *257:A1 0
8 *251:A1 0.00015791
9 *222:X 0.000205951
10 *36:97 0.000801405
11 *36:82 5.28078e-05
12 *36:76 0.0017138
13 *36:63 0.00117745
14 *36:61 0.000941309
15 *36:59 0.00212287
16 *36:40 0.00208068
17 *36:27 0.000852626
18 *36:8 0.000634906
19 *236:A1 *236:A3 3.55887e-05
20 *236:A1 *82:14 2.96051e-05
21 *251:A1 *251:A3 7.53384e-06
22 *251:A1 *57:38 0
23 *251:A1 *58:8 0.000108681
24 *251:A1 *89:22 9.41704e-05
25 *266:A1 *266:B1 3.22879e-05
26 *36:8 *222:B 2.45549e-06
27 *36:27 *57:38 0
28 *36:27 *58:8 0.000225275
29 *36:27 *62:21 0
30 *36:27 *83:60 5.20773e-05
31 *36:27 *99:10 0.000222123
32 *36:40 *277:RESET_B 0
33 *36:40 *305:A 0
34 *36:40 *83:60 0
35 *36:59 *263:A 0.000123693
36 *36:59 *265:B2 6.57815e-06
37 *36:59 *266:B1 0.000313217
38 *36:59 *268:A 0
39 *36:59 *68:31 1.21972e-05
40 *36:59 *72:6 0.000156877
41 *36:59 *76:10 3.70094e-05
42 *36:59 *77:10 2.95125e-05
43 *36:61 *241:A2 9.28739e-05
44 *36:61 *243:A1 3.92407e-05
45 *36:61 *270:A1 0
46 *36:61 *275:RESET_B 0
47 *36:61 *279:RESET_B 4.26853e-05
48 *36:61 *50:10 1.47563e-05
49 *36:61 *77:10 0.000148402
50 *36:61 *82:119 0
51 *36:61 *84:8 0
52 *36:61 *88:45 0
53 *36:61 *105:8 4.23817e-05
54 *36:63 *236:A3 9.19307e-05
55 *36:63 *239:B1 8.16356e-05
56 *36:63 *243:A1 0.000208827
57 *36:63 *50:10 6.68793e-05
58 *36:63 *82:14 7.01546e-05
59 *36:63 *87:45 0.00018835
60 *36:76 *236:A2 9.30151e-05
61 *36:76 *236:B1 0.000224605
62 *36:76 *83:34 5.72091e-05
63 *36:76 *95:10 0.000405611
64 *36:82 *39:17 8.50366e-05
65 *36:82 *83:16 2.04854e-05
66 *36:97 *39:34 4.4553e-05
67 *36:97 *40:10 7.59794e-05
68 *36:97 *78:12 2.98648e-05
69 *36:97 *95:10 0.00021051
70 *12:11 *36:97 0.000155091
71 *15:17 *36:61 0
72 *29:8 *36:40 0
73 *32:33 *36:97 2.02872e-05
74 *32:41 *36:76 9.59638e-05
75 *35:28 *251:A1 1.05235e-05
76 *35:40 *36:97 0.000241899
77 *35:48 *36:61 6.0093e-05
78 *35:48 *36:63 1.17049e-05
*RES
1 *222:X *36:8 40.0507 
2 *36:8 *251:A1 41.1486 
3 *36:8 *36:27 7.60214 
4 *36:27 *257:A1 38 
5 *36:27 *36:40 25.3364 
6 *36:40 *266:A1 24.0979 
7 *36:40 *36:59 37.1229 
8 *36:59 *36:61 13.5264 
9 *36:61 *36:63 7.54 
10 *36:63 *236:A1 38.8493 
11 *36:63 *36:76 28.0086 
12 *36:76 *36:82 31.2014 
13 *36:82 *228:B1 23 
14 *36:76 *36:97 44.2721 
15 *36:97 *224:A2 23 
16 *36:61 *240:B1 38 
17 *36:59 *271:A1 38 
*END

*D_NET *37 0.00143541
*CONN
*I *224:B1 I *D sky130_fd_sc_hd__a21oi_1
*I *223:X O *D sky130_fd_sc_hd__a22o_1
*CAP
1 *224:B1 5.01165e-05
2 *223:X 0.000328437
3 *37:8 0.000378553
4 *224:B1 *104:8 2.18409e-05
5 *37:8 *272:RESET_B 0
6 *37:8 *39:34 0.000404047
7 *37:8 *81:10 0
8 *37:8 *82:47 6.53505e-05
9 *227:A *224:B1 5.67058e-05
10 *12:11 *37:8 0
11 *24:8 *37:8 6.93449e-05
12 *32:18 *37:8 2.01531e-05
13 *33:10 *37:8 4.08641e-05
*RES
1 *223:X *37:8 46.2443 
2 *37:8 *224:B1 39.0979 
*END

*D_NET *38 0.000341566
*CONN
*I *231:B1 I *D sky130_fd_sc_hd__o21a_1
*I *225:Y O *D sky130_fd_sc_hd__nand2b_1
*CAP
1 *231:B1 2.97303e-05
2 *225:Y 2.97303e-05
3 *231:B1 *225:B 0.000141052
4 *231:B1 *94:39 0.000141052
*RES
1 *225:Y *231:B1 47.5743 
*END

*D_NET *39 0.00431745
*CONN
*I *227:B I *D sky130_fd_sc_hd__nand2_1
*I *228:A2 I *D sky130_fd_sc_hd__o21a_1
*I *231:A1 I *D sky130_fd_sc_hd__o21a_1
*I *226:X O *D sky130_fd_sc_hd__xor2_2
*CAP
1 *227:B 0
2 *228:A2 0.000100448
3 *231:A1 0.000254402
4 *226:X 0
5 *39:34 0.000614626
6 *39:17 0.000917644
7 *39:4 0.000456972
8 *231:A1 *226:A 0.000101764
9 *231:A1 *83:16 0.000100543
10 *231:A1 *94:39 0.00011001
11 *231:A1 *94:53 0.000103405
12 *39:17 *79:43 5.6641e-05
13 *39:34 *272:RESET_B 0
14 *39:34 *78:12 0.000222785
15 *39:34 *79:8 0.00056198
16 count[0] *39:34 2.20458e-05
17 *32:33 *228:A2 7.87147e-05
18 *32:33 *39:34 4.65414e-05
19 *33:10 *39:34 3.52937e-05
20 *36:82 *39:17 8.50366e-05
21 *36:97 *39:34 4.4553e-05
22 *37:8 *39:34 0.000404047
*RES
1 *226:X *39:4 23 
2 *39:4 *231:A1 29.3386 
3 *39:4 *39:17 33.3143 
4 *39:17 *228:A2 25.0714 
5 *39:17 *39:34 45.1007 
6 *39:34 *227:B 23 
*END

*D_NET *40 0.00221294
*CONN
*I *230:A1 I *D sky130_fd_sc_hd__a21o_1
*I *227:Y O *D sky130_fd_sc_hd__nand2_1
*CAP
1 *230:A1 0
2 *227:Y 0.000590561
3 *40:10 0.000590561
4 *40:10 *301:A 1.37232e-05
5 *40:10 *104:8 0.000182826
6 *32:18 *40:10 0.000270753
7 *35:40 *40:10 0.000212168
8 *35:42 *40:10 0.000276368
9 *36:97 *40:10 7.59794e-05
*RES
1 *227:Y *40:10 34.8486 
2 *40:10 *230:A1 23 
*END

*D_NET *41 0.000953825
*CONN
*I *230:A2 I *D sky130_fd_sc_hd__a21o_1
*I *228:X O *D sky130_fd_sc_hd__o21a_1
*CAP
1 *230:A2 1.7859e-05
2 *228:X 0.000303626
3 *41:8 0.000321485
4 *230:A2 *92:10 0.000100061
5 *41:8 *301:A 5.85725e-05
6 *41:8 *79:12 3.76854e-05
7 *41:8 *95:10 1.21484e-05
8 *35:42 *230:A2 0.000102389
*RES
1 *228:X *41:8 43.075 
2 *41:8 *230:A2 39.0979 
*END

*D_NET *42 0.000664433
*CONN
*I *230:B1 I *D sky130_fd_sc_hd__a21o_1
*I *229:X O *D sky130_fd_sc_hd__a22o_1
*CAP
1 *230:B1 1.17716e-05
2 *229:X 0.000171596
3 *42:10 0.000183367
4 *230:B1 *92:10 5.56279e-05
5 count[1] *42:10 2.96051e-05
6 *5:8 *42:10 0.000144501
7 *25:10 *42:10 1.00084e-05
8 *35:42 *230:B1 5.79559e-05
*RES
1 *229:X *42:10 40.7757 
2 *42:10 *230:B1 38.6214 
*END

*D_NET *43 0.00249726
*CONN
*I *244:A3 I *D sky130_fd_sc_hd__o31ai_4
*I *233:A I *D sky130_fd_sc_hd__nand2_1
*I *234:A I *D sky130_fd_sc_hd__or2_1
*I *231:X O *D sky130_fd_sc_hd__o21a_1
*CAP
1 *244:A3 0
2 *233:A 0
3 *234:A 0.000227042
4 *231:X 0
5 *43:36 0.00028206
6 *43:21 0.000226239
7 *43:6 0.000527373
8 *43:4 0.000356151
9 *234:A *225:B 4.37099e-05
10 *234:A *44:8 4.22575e-05
11 *234:A *94:16 9.24795e-06
12 *234:A *94:39 2.95542e-05
13 *43:6 *225:B 8.43466e-05
14 *43:21 *44:16 0
15 *43:21 *44:22 0.00013553
16 *43:21 *47:8 1.86869e-05
17 *43:21 *82:14 0
18 *43:36 *225:B 0.000168687
19 *43:36 *244:A2 0.000139982
20 *43:36 *310:A 0.000136486
21 *43:36 *94:39 1.01436e-05
22 *43:36 *97:8 5.97612e-05
*RES
1 *231:X *43:4 23 
2 *43:4 *43:6 1.09786 
3 *43:6 *234:A 26.5007 
4 *43:6 *43:21 34.0186 
5 *43:21 *233:A 23 
6 *43:4 *43:36 35.5307 
7 *43:36 *244:A3 23 
*END

*D_NET *44 0.0035821
*CONN
*I *234:B I *D sky130_fd_sc_hd__or2_1
*I *244:A2 I *D sky130_fd_sc_hd__o31ai_4
*I *233:B I *D sky130_fd_sc_hd__nand2_1
*I *232:X O *D sky130_fd_sc_hd__xor2_1
*CAP
1 *234:B 0
2 *244:A2 0.000348034
3 *233:B 0
4 *232:X 0.000155171
5 *44:22 0.000224147
6 *44:16 0.000835443
7 *44:8 0.000418433
8 *244:A2 *244:B1 0.000140259
9 *244:A2 *54:10 2.93335e-05
10 *44:8 *225:A_N 2.69944e-05
11 *44:8 *87:45 0.000353214
12 *44:8 *94:16 0.000492451
13 *44:16 *244:B1 5.50049e-05
14 *44:16 *82:14 6.7118e-05
15 *44:22 *310:A 4.06577e-05
16 *44:22 *86:10 4.21594e-06
17 *44:22 *86:19 7.38555e-05
18 *234:A *44:8 4.22575e-05
19 *43:21 *44:16 0
20 *43:21 *44:22 0.00013553
21 *43:36 *244:A2 0.000139982
*RES
1 *232:X *44:8 29.235 
2 *44:8 *44:16 34.9093 
3 *44:16 *44:22 35.4271 
4 *44:22 *233:B 23 
5 *44:16 *244:A2 29.3593 
6 *44:8 *234:B 23 
*END

*D_NET *45 0.000674836
*CONN
*I *236:A2 I *D sky130_fd_sc_hd__a31o_1
*I *233:Y O *D sky130_fd_sc_hd__nand2_1
*CAP
1 *236:A2 0.000110461
2 *233:Y 0.000110461
3 *236:A2 *236:A3 2.93747e-05
4 *236:A2 *236:B1 0.000182826
5 *236:A2 *83:34 0.000148698
6 *36:76 *236:A2 9.30151e-05
*RES
1 *233:Y *236:A2 49.9564 
*END

*D_NET *46 0.00165392
*CONN
*I *239:B1 I *D sky130_fd_sc_hd__o21ai_1
*I *236:A3 I *D sky130_fd_sc_hd__a31o_1
*I *234:X O *D sky130_fd_sc_hd__or2_1
*CAP
1 *239:B1 6.54755e-05
2 *236:A3 0.000275362
3 *234:X 8.25057e-05
4 *46:8 0.000423343
5 *236:A3 *236:B1 3.53115e-05
6 *236:A3 *82:14 0
7 *46:8 *87:45 5.12254e-05
8 *236:A1 *236:A3 3.55887e-05
9 *236:A2 *236:A3 2.93747e-05
10 *35:48 *236:A3 0.000324861
11 *35:48 *239:B1 0.000157309
12 *36:63 *236:A3 9.19307e-05
13 *36:63 *239:B1 8.16356e-05
*RES
1 *234:X *46:8 39.0979 
2 *46:8 *236:A3 44.9186 
3 *46:8 *239:B1 40.2579 
*END

*D_NET *47 0.00134014
*CONN
*I *236:B1 I *D sky130_fd_sc_hd__a31o_1
*I *235:X O *D sky130_fd_sc_hd__a22o_1
*CAP
1 *236:B1 0.000101187
2 *235:X 0.000230227
3 *47:8 0.000331414
4 *47:8 *82:14 8.72881e-05
5 *47:8 *83:34 1.22803e-05
6 *47:8 *86:10 0
7 *236:A2 *236:B1 0.000182826
8 *236:A3 *236:B1 3.53115e-05
9 *26:8 *47:8 0.000116314
10 *36:76 *236:B1 0.000224605
11 *43:21 *47:8 1.86869e-05
*RES
1 *235:X *47:8 43.4271 
2 *47:8 *236:B1 41.5007 
*END

*D_NET *48 0.00277919
*CONN
*I *241:A1 I *D sky130_fd_sc_hd__a21oi_1
*I *238:A I *D sky130_fd_sc_hd__inv_2
*I *240:A1 I *D sky130_fd_sc_hd__o21ai_1
*I *237:Y O *D sky130_fd_sc_hd__xnor2_1
*CAP
1 *241:A1 0
2 *238:A 0.000621216
3 *240:A1 2.34823e-05
4 *237:Y 0.00015717
5 *48:14 0.000724433
6 *48:6 0.000236906
7 *238:A *243:A1 0.000272383
8 *238:A *262:B1 0
9 *238:A *51:10 0.000137651
10 *238:A *101:25 0.000170936
11 *238:A *101:33 0.000138826
12 *48:6 *52:10 3.82058e-06
13 *48:14 *51:10 5.3304e-05
14 *48:14 *82:119 0.000110913
15 *48:14 *101:33 1.94693e-05
16 *35:48 *48:14 0.000108681
*RES
1 *237:Y *48:6 24.5743 
2 *48:6 *48:14 32.175 
3 *48:14 *240:A1 23.4971 
4 *48:14 *238:A 36.0293 
5 *48:6 *241:A1 23 
*END

*D_NET *49 0.000476391
*CONN
*I *244:A1 I *D sky130_fd_sc_hd__o31ai_4
*I *238:Y O *D sky130_fd_sc_hd__inv_2
*CAP
1 *244:A1 0
2 *238:Y 0.00020428
3 *49:10 0.00020428
4 *49:10 *246:B 3.5664e-05
5 *49:10 *54:10 3.21668e-05
6 *3:13 *49:10 0
*RES
1 *238:Y *49:10 41.3557 
2 *49:10 *244:A1 38 
*END

*D_NET *50 0.00107819
*CONN
*I *241:A2 I *D sky130_fd_sc_hd__a21oi_1
*I *240:A2 I *D sky130_fd_sc_hd__o21ai_1
*I *239:Y O *D sky130_fd_sc_hd__o21ai_1
*CAP
1 *241:A2 0.000135797
2 *240:A2 0
3 *239:Y 0.000115428
4 *50:10 0.000251225
5 *50:10 *82:14 5.50106e-05
6 *35:48 *241:A2 0.000179702
7 *35:48 *50:10 0.000166522