*SPEF "ieee 1481-1999"
*DESIGN "counter"
*DATE "12:42:41 Wednesday December 04, 2024"
*VENDOR "The OpenROAD Project"
*PROGRAM "OpenROAD"
*VERSION "b16bda7e82721d10566ff7e2b68f1ff0be9f9e38"
*DESIGN_FLOW "NAME_SCOPE LOCAL" "PIN_CAP NONE"
*DIVIDER /
*DELIMITER :
*BUS_DELIMITER []
*T_UNIT 1 NS
*C_UNIT 1 PF
*R_UNIT 1 OHM
*L_UNIT 1 HENRY

*NAME_MAP
*3 clk
*4 count[0]
*5 count[1]
*6 count[2]
*7 count[3]
*8 count[4]
*9 count[5]
*10 count[6]
*11 count[7]
*12 data[0]
*13 data[1]
*14 data[2]
*15 data[3]
*16 data[4]
*17 data[5]
*18 data[6]
*19 data[7]
*20 enable
*21 preload
*22 resetn
*23 up_down
*24 _000_
*25 _001_
*26 _002_
*27 _003_
*28 _004_
*29 _005_
*30 _006_
*31 _007_
*32 _008_
*33 _009_
*34 _010_
*35 _011_
*36 _012_
*37 _013_
*38 _014_
*39 _015_
*40 _016_
*41 _017_
*42 _018_
*43 _019_
*44 _020_
*45 _021_
*46 _022_
*47 _023_
*48 _024_
*49 _025_
*50 _026_
*51 _027_
*52 _028_
*53 _029_
*54 _030_
*55 _031_
*56 _032_
*57 _033_
*58 _034_
*59 _035_
*60 _036_
*61 _037_
*62 _038_
*63 _039_
*64 _040_
*65 _041_
*66 _042_
*67 _043_
*68 _044_
*69 _045_
*70 _046_
*71 _047_
*72 _048_
*73 _049_
*74 _050_
*75 _051_
*76 _052_
*77 _053_
*78 clknet_0_clk
*79 clknet_1_0__leaf_clk
*80 clknet_1_1__leaf_clk
*81 net1
*82 net10
*83 net11
*84 net12
*85 net13
*86 net14
*87 net15
*88 net16
*89 net17
*90 net18
*91 net19
*92 net2
*93 net20
*94 net21
*95 net22
*96 net23
*97 net24
*98 net25
*99 net26
*100 net27
*101 net28
*102 net29
*103 net3
*104 net30
*105 net4
*106 net5
*107 net6
*108 net7
*109 net8
*110 net9
*111 FILLER_0_0_22
*112 FILLER_0_0_27
*113 FILLER_0_0_29
*114 FILLER_0_0_3
*115 FILLER_0_0_55
*116 FILLER_0_0_57
*117 FILLER_0_0_77
*118 FILLER_0_10_10
*119 FILLER_0_10_18
*120 FILLER_0_10_26
*121 FILLER_0_10_29
*122 FILLER_0_10_33
*123 FILLER_0_10_56
*124 FILLER_0_10_68
*125 FILLER_0_11_14
*126 FILLER_0_11_22
*127 FILLER_0_11_30
*128 FILLER_0_11_51
*129 FILLER_0_11_55
*130 FILLER_0_11_57
*131 FILLER_0_11_69
*132 FILLER_0_11_77
*133 FILLER_0_12_15
*134 FILLER_0_12_27
*135 FILLER_0_12_29
*136 FILLER_0_12_3
*137 FILLER_0_12_37
*138 FILLER_0_12_44
*139 FILLER_0_12_48
*140 FILLER_0_12_57
*141 FILLER_0_12_69
*142 FILLER_0_12_77
*143 FILLER_0_1_44
*144 FILLER_0_1_55
*145 FILLER_0_1_57
*146 FILLER_0_2_13
*147 FILLER_0_2_21
*148 FILLER_0_2_27
*149 FILLER_0_2_36
*150 FILLER_0_2_69
*151 FILLER_0_2_7
*152 FILLER_0_3_10
*153 FILLER_0_3_45
*154 FILLER_0_3_55
*155 FILLER_0_3_64
*156 FILLER_0_4_18
*157 FILLER_0_4_26
*158 FILLER_0_4_3
*159 FILLER_0_5_12
*160 FILLER_0_5_17
*161 FILLER_0_5_42
*162 FILLER_0_6_14
*163 FILLER_0_6_26
*164 FILLER_0_6_29
*165 FILLER_0_6_57
*166 FILLER_0_6_76
*167 FILLER_0_7_38
*168 FILLER_0_7_52
*169 FILLER_0_7_68
*170 FILLER_0_8_14
*171 FILLER_0_8_26
*172 FILLER_0_8_3
*173 FILLER_0_9_24
*174 FILLER_0_9_3
*175 FILLER_0_9_50
*176 FILLER_0_9_57
*177 PHY_EDGE_ROW_0_Left_13
*178 PHY_EDGE_ROW_0_Right_0
*179 PHY_EDGE_ROW_10_Left_23
*180 PHY_EDGE_ROW_10_Right_10
*181 PHY_EDGE_ROW_11_Left_24
*182 PHY_EDGE_ROW_11_Right_11
*183 PHY_EDGE_ROW_12_Left_25
*184 PHY_EDGE_ROW_12_Right_12
*185 PHY_EDGE_ROW_1_Left_14
*186 PHY_EDGE_ROW_1_Right_1
*187 PHY_EDGE_ROW_2_Left_15
*188 PHY_EDGE_ROW_2_Right_2
*189 PHY_EDGE_ROW_3_Left_16
*190 PHY_EDGE_ROW_3_Right_3
*191 PHY_EDGE_ROW_4_Left_17
*192 PHY_EDGE_ROW_4_Right_4
*193 PHY_EDGE_ROW_5_Left_18
*194 PHY_EDGE_ROW_5_Right_5
*195 PHY_EDGE_ROW_6_Left_19
*196 PHY_EDGE_ROW_6_Right_6
*197 PHY_EDGE_ROW_7_Left_20
*198 PHY_EDGE_ROW_7_Right_7
*199 PHY_EDGE_ROW_8_Left_21
*200 PHY_EDGE_ROW_8_Right_8
*201 PHY_EDGE_ROW_9_Left_22
*202 PHY_EDGE_ROW_9_Right_9
*203 TAP_TAPCELL_ROW_0_26
*204 TAP_TAPCELL_ROW_0_27
*205 TAP_TAPCELL_ROW_10_37
*206 TAP_TAPCELL_ROW_11_38
*207 TAP_TAPCELL_ROW_12_39
*208 TAP_TAPCELL_ROW_12_40
*209 TAP_TAPCELL_ROW_1_28
*210 TAP_TAPCELL_ROW_2_29
*211 TAP_TAPCELL_ROW_3_30
*212 TAP_TAPCELL_ROW_4_31
*213 TAP_TAPCELL_ROW_5_32
*214 TAP_TAPCELL_ROW_6_33
*215 TAP_TAPCELL_ROW_7_34
*216 TAP_TAPCELL_ROW_8_35
*217 TAP_TAPCELL_ROW_9_36
*218 _054_
*219 _055_
*220 _056_
*221 _057_
*222 _058_
*223 _059_
*224 _060_
*225 _061_
*226 _062_
*227 _063_
*228 _064_
*229 _065_
*230 _066_
*231 _067_
*232 _068_
*233 _069_
*234 _070_
*235 _071_
*236 _072_
*237 _073_
*238 _074_
*239 _075_
*240 _076_
*241 _077_
*242 _078_
*243 _079_
*244 _080_
*245 _081_
*246 _082_
*247 _083_
*248 _084_
*249 _085_
*250 _086_
*251 _087_
*252 _088_
*253 _089_
*254 _090_
*255 _091_
*256 _092_
*257 _093_
*258 _094_
*259 _095_
*260 _096_
*261 _097_
*262 _098_
*263 _099_
*264 _100_
*265 _101_
*266 _102_
*267 _103_
*268 _104_
*269 _105_
*270 _106_
*271 _107_
*272 _108_
*273 _109_
*274 _110_
*275 _111_
*276 _112_
*277 _113_
*278 _114_
*279 _115_
*280 clkbuf_0_clk
*281 clkbuf_1_0__f_clk
*282 clkbuf_1_1__f_clk
*283 clkload0
*284 clone7
*285 fanout21
*286 hold8
*287 hold9
*288 input1
*289 input10
*290 input11
*291 input12
*292 input2
*293 input3
*294 input4
*295 input5
*296 input6
*297 input7
*298 input8
*299 input9
*300 output13
*301 output14
*302 output15
*303 output16
*304 output17
*305 output18
*306 output19
*307 output20
*308 rebuffer1
*309 rebuffer2
*310 rebuffer3
*311 rebuffer4
*312 rebuffer5
*313 rebuffer6

*PORTS
clk I
count[0] O
count[1] O
count[2] O
count[3] O
count[4] O
count[5] O
count[6] O
count[7] O
data[0] I
data[1] I
data[2] I
data[3] I
data[4] I
data[5] I
data[6] I
data[7] I
enable I
preload I
resetn I
up_down I

*D_NET *3 0.00405171
*CONN
*P clk I
*I *280:A I *D sky130_fd_sc_hd__clkbuf_16
*CAP
1 clk 0.00184479
2 *280:A 0.00184479
3 *280:A count[2] 3.14094e-05
4 *280:A count[3] 0
5 *280:A *225:B 0
6 *280:A *244:A1 0
7 *280:A *246:B 0.00011852
8 *280:A *276:CLK 0
9 *280:A *289:A 3.6993e-05
10 *280:A *101:10 0.000175214
*RES
1 clk *280:A 12.6911 
*END

*D_NET *4 0.00117103
*CONN
*P count[0] O
*I *300:X O *D sky130_fd_sc_hd__buf_2
*CAP
1 count[0] 0.000517903
2 *300:X 0.000517903
3 count[0] *227:B 2.3087e-05
4 count[0] *286:A 0.000112134
5 count[0] *85:25 0
*RES
1 *300:X count[0] 5.88117 
*END

*D_NET *5 0.00208974
*CONN
*P count[1] O
*I *301:X O *D sky130_fd_sc_hd__buf_2
*CAP
1 count[1] 0.000640137
2 *301:X 0.000640137
3 count[1] *227:A 0.000158066
4 count[1] *229:A1 2.30292e-05
5 count[1] *229:A2 0.000269827
6 count[1] *230:B1 0.000150674
7 count[1] *273:D 4.77757e-05
8 count[1] *292:A 0
9 count[1] *301:A 0.000120655
10 count[1] *35:40 2.8185e-05
11 count[1] *35:42 1.12578e-05
12 count[1] *82:24 0
*RES
1 *301:X count[1] 16.245 
*END

*D_NET *6 0.000590999
*CONN
*P count[2] O
*I *302:X O *D sky130_fd_sc_hd__buf_2
*CAP
1 count[2] 0.000279795
2 *302:X 0.000279795
3 *280:A count[2] 3.14094e-05
*RES
1 *302:X count[2] 7.1793 
*END

*D_NET *7 0.000759886
*CONN
*P count[3] O
*I *303:X O *D sky130_fd_sc_hd__buf_2
*CAP
1 count[3] 0.000269568
2 *303:X 0.000269568
3 count[3] *237:A 6.44676e-05
4 count[3] *237:B 6.74079e-05
5 count[3] *285:A 0
6 count[3] *289:A 3.45293e-05
7 count[3] *294:A 5.43462e-05
8 *280:A count[3] 0
*RES
1 *303:X count[3] 6.94503 
*END

*D_NET *8 0.000825158
*CONN
*P count[4] O
*I *304:X O *D sky130_fd_sc_hd__buf_2
*CAP
1 count[4] 0.000299418
2 *304:X 0.000299418
3 count[4] count[5] 0
4 count[4] *221:B 2.05571e-05
5 count[4] *296:A 7.56675e-05
6 count[4] *299:A 0.000111237
7 count[4] *82:84 1.88602e-05
*RES
1 *304:X count[4] 5.1381 
*END

*D_NET *9 0.000511198
*CONN
*P count[5] O
*I *305:X O *D sky130_fd_sc_hd__buf_2
*CAP
1 count[5] 0.00018775
2 *305:X 0.00018775
3 count[5] *265:B1 6.24871e-05
4 count[5] *296:A 7.32103e-05
5 count[4] count[5] 0
*RES
1 *305:X count[5] 5.35677 
*END

*D_NET *10 0.000972767
*CONN
*P count[6] O
*I *306:X O *D sky130_fd_sc_hd__clkbuf_4
*CAP
1 count[6] 0.000479184
2 *306:X 0.000479184
3 count[6] *297:A 0
4 count[6] *306:A 1.4399e-05
*RES
1 *306:X count[6] 11.925 
*END

*D_NET *11 0.000505334
*CONN
*P count[7] O
*I *307:X O *D sky130_fd_sc_hd__buf_2
*CAP
1 count[7] 0.000227246
2 *307:X 0.000227246
3 count[7] *291:A 0
4 count[7] *298:A 2.85068e-05
5 count[7] *93:25 2.23342e-05
*RES
1 *307:X count[7] 5.16003 
*END

*D_NET *12 0.00227129
*CONN
*P data[0] I
*I *288:A I *D sky130_fd_sc_hd__clkbuf_1
*CAP
1 data[0] 0.000723027
2 *288:A 0.000723027
3 *288:A *224:A2 0.000160723
4 *288:A *224:B1 0
5 *288:A *227:A 3.9442e-05
6 *288:A *272:D 4.11198e-05
7 *288:A *35:28 9.80032e-06
8 *288:A *35:40 2.75229e-05
9 *288:A *82:24 0
10 *288:A *82:49 0.000157872
11 *288:A *82:62 0.00011577
12 *288:A *83:16 0.000272984
*RES
1 data[0] *288:A 18.9 
*END

*D_NET *13 0.00116397
*CONN
*P data[1] I
*I *292:A I *D sky130_fd_sc_hd__clkbuf_1
*CAP
1 data[1] 0.000581984
2 *292:A 0.000581984
3 *292:A *82:24 0
4 count[1] *292:A 0
*RES
1 data[1] *292:A 17.215 
*END

*D_NET *14 0.00102205
*CONN
*P data[2] I
*I *293:A I *D sky130_fd_sc_hd__clkbuf_1
*CAP
1 data[2] 0.000450088
2 *293:A 0.000450088
3 *293:A *235:A2 4.82919e-05
4 *293:A *35:42 7.35813e-05
5 *293:A *82:14 0
6 *293:A *82:24 0
*RES
1 data[2] *293:A 11.655 
*END

*D_NET *15 0.0014553
*CONN
*P data[3] I
*I *294:A I *D sky130_fd_sc_hd__clkbuf_1
*CAP
1 data[3] 0.000529252
2 *294:A 0.000529252
3 *294:A *242:A2 3.86607e-05
4 *294:A *242:B2 3.27579e-05
5 *294:A *242:C1 0
6 *294:A *270:A1 3.09233e-05
7 *294:A *270:B1 5.98081e-06
8 *294:A *291:A 5.63302e-05
9 *294:A *36:61 0
10 *294:A *82:123 9.37731e-05
11 *294:A *84:29 8.40269e-05
12 count[3] *294:A 5.43462e-05
*RES
1 data[3] *294:A 14.717 
*END

*D_NET *16 0.00102286
*CONN
*P data[4] I
*I *295:A I *D sky130_fd_sc_hd__clkbuf_1
*CAP
1 data[4] 0.000333927
2 *295:A 0.000333927
3 *295:A *250:A2 0.000205821
4 *295:A *286:A 0
5 *295:A *290:A 2.97004e-06
6 *295:A *299:A 9.92403e-05
7 *295:A *82:62 1.07797e-05
8 *295:A *83:6 3.00381e-05
9 *295:A *83:53 0
10 *295:A *89:10 6.15576e-06
*RES
1 data[4] *295:A 7.9633 
*END

*D_NET *17 0.000416511
*CONN
*P data[5] I
*I *296:A I *D sky130_fd_sc_hd__clkbuf_1
*CAP
1 data[5] 0.000118207
2 *296:A 0.000118207
3 *296:A *265:B1 2.56866e-05
4 *296:A *35:100 5.53249e-06
5 count[4] *296:A 7.56675e-05
6 count[5] *296:A 7.32103e-05
*RES
1 data[5] *296:A 5.0435 
*END

*D_NET *18 0.000995622
*CONN
*P data[6] I
*I *297:A I *D sky130_fd_sc_hd__clkbuf_1
*CAP
1 data[6] 0.000494895
2 *297:A 0.000494895
3 *297:A *265:A2 5.83121e-06
4 count[6] *297:A 0
*RES
1 data[6] *297:A 12.135 
*END

*D_NET *19 0.0005941
*CONN
*P data[7] I
*I *298:A I *D sky130_fd_sc_hd__clkbuf_1
*CAP
1 data[7] 0.000271552
2 *298:A 0.000271552
3 *298:A *291:A 2.24901e-05
4 *298:A *93:25 0
5 count[7] *298:A 2.85068e-05
*RES
1 data[7] *298:A 7.3443 
*END

*D_NET *20 0.00203123
*CONN
*P enable I
*I *299:A I *D sky130_fd_sc_hd__clkbuf_1
*CAP
1 enable 0.000504903
2 *299:A 0.000504903
3 *299:A *223:A2 0
4 *299:A *251:A2 0.000103431
5 *299:A *276:D 0
6 *299:A *35:28 0.000250609
7 *299:A *83:53 0.000140912
8 *299:A *83:60 0.000315995
9 count[4] *299:A 0.000111237
10 *295:A *299:A 9.92403e-05
*RES
1 enable *299:A 10.4129 
*END

*D_NET *21 0.000729683
*CONN
*P preload I
*I *289:A I *D sky130_fd_sc_hd__buf_2
*CAP
1 preload 0.000329081
2 *289:A 0.000329081
3 *289:A *94:10 0
4 count[3] *289:A 3.45293e-05
5 *280:A *289:A 3.6993e-05
*RES
1 preload *289:A 8.53043 
*END

*D_NET *22 0.000695496
*CONN
*P resetn I
*I *286:A I *D sky130_fd_sc_hd__dlygate4sd3_1
*CAP
1 resetn 0.000285556
2 *286:A 0.000285556
3 *286:A *272:RESET_B 1.22505e-05
4 count[0] *286:A 0.000112134
5 *295:A *286:A 0
*RES
1 resetn *286:A 5.1381 
*END

*D_NET *23 0.0013358
*CONN
*P up_down I
*I *291:A I *D sky130_fd_sc_hd__clkbuf_2
*CAP
1 up_down 0.000384253
2 *291:A 0.000384253
3 *291:A *270:B2 0.00010467
4 *291:A *84:8 0.000172957
5 *291:A *93:25 0.000210846
6 count[7] *291:A 0
7 *294:A *291:A 5.63302e-05
8 *298:A *291:A 2.24901e-05
*RES
1 up_down *291:A 8.39483 
*END

*D_NET *24 0.00021001
*CONN
*I *272:D I *D sky130_fd_sc_hd__dfrtp_1
*I *224:Y O *D sky130_fd_sc_hd__a21oi_1
*CAP
1 *272:D 4.78037e-05
2 *224:Y 4.78037e-05
3 *272:D *224:B1 6.47516e-05
4 *272:D *227:A 8.53113e-06
5 *288:A *272:D 4.11198e-05
*RES
1 *224:Y *272:D 8.58 
*END

*D_NET *25 0.000376241
*CONN
*I *273:D I *D sky130_fd_sc_hd__dfrtp_1
*I *230:X O *D sky130_fd_sc_hd__a21o_1
*CAP
1 *273:D 0.000149237
2 *230:X 0.000149237
3 *273:D *229:A2 2.16833e-05
4 *273:D *230:B1 8.30853e-06
5 count[1] *273:D 4.77757e-05
*RES
1 *230:X *273:D 9.375 
*END

*D_NET *26 0.000243378
*CONN
*I *274:D I *D sky130_fd_sc_hd__dfrtp_2
*I *236:X O *D sky130_fd_sc_hd__a31o_1
*CAP
1 *274:D 2.54121e-05
2 *236:X 2.54121e-05
3 *274:D *236:B1 9.71067e-05
4 *274:D *274:RESET_B 9.54469e-05
*RES
1 *236:X *274:D 8.325 
*END

*D_NET *27 0.000981563
*CONN
*I *275:D I *D sky130_fd_sc_hd__dfrtp_1
*I *242:X O *D sky130_fd_sc_hd__a221o_1
*CAP
1 *275:D 0.000198039
2 *242:X 0.000198039
3 *275:D *243:A2 0.000230916
4 *275:D *35:54 3.26889e-05
5 *275:D *84:29 0.000291842
6 *275:D *88:6 3.00381e-05
*RES
1 *242:X *275:D 9.53 
*END

*D_NET *28 0.000519792
*CONN
*I *276:D I *D sky130_fd_sc_hd__dfrtp_1
*I *251:X O *D sky130_fd_sc_hd__a31o_1
*CAP
1 *276:D 0.000137352
2 *251:X 0.000137352
3 *276:D *249:A 0.000120186
4 *276:D *251:A3 0.0001249
5 *276:D *313:A 0
6 *276:D *100:8 0
7 *299:A *276:D 0
*RES
1 *251:X *276:D 9.975 
*END

*D_NET *29 0.000182663
*CONN
*I *277:D I *D sky130_fd_sc_hd__dfrtp_1
*I *257:X O *D sky130_fd_sc_hd__a31o_1
*CAP
1 *277:D 9.13317e-05
2 *257:X 9.13317e-05
3 *277:D *282:A 0
4 *277:D *36:40 0
*RES
1 *257:X *277:D 8.58 
*END

*D_NET *30 0.000864007
*CONN
*I *278:D I *D sky130_fd_sc_hd__dfrtp_1
*I *266:X O *D sky130_fd_sc_hd__a31o_1
*CAP
1 *278:D 0.000233193
2 *266:X 0.000233193
3 *278:D *252:A 2.62017e-05
4 *278:D *259:B 6.99988e-05
5 *278:D *261:A2 5.83121e-06
6 *278:D *265:A1 2.08258e-06
7 *278:D *70:14 0.000179015
8 *278:D *80:19 0.000114492
*RES
1 *266:X *278:D 11.5275 
*END

*D_NET *31 0.000813298
*CONN
*I *279:D I *D sky130_fd_sc_hd__dfrtp_1
*I *271:X O *D sky130_fd_sc_hd__a21o_1
*CAP
1 *279:D 0.00029332
2 *271:X 0.00029332
3 *279:D *271:B1 3.86607e-05
4 *279:D *279:RESET_B 0.000159209
5 *279:D *84:8 2.87867e-05
*RES
1 *271:X *279:D 11.295 
*END

*D_NET *32 0.00495368
*CONN
*I *223:B2 I *D sky130_fd_sc_hd__a22o_1
*I *228:A1 I *D sky130_fd_sc_hd__o21a_1
*I *231:A2 I *D sky130_fd_sc_hd__o21a_1
*I *227:A I *D sky130_fd_sc_hd__nand2_1
*I *218:Y O *D sky130_fd_sc_hd__inv_2
*CAP
1 *223:B2 0.000166324
2 *228:A1 0
3 *231:A2 0.000135106
4 *227:A 0.000385909
5 *218:Y 9.12525e-05
6 *32:33 0.000223734
7 *32:29 0.000361563
8 *32:8 0.000583772
9 *223:B2 *245:A_N 2.75229e-05
10 *223:B2 *281:A 8.5225e-05
11 *223:B2 *35:40 9.66106e-05
12 *223:B2 *79:43 6.92253e-05
13 *223:B2 *82:62 4.00541e-06
14 *223:B2 *83:16 0.000311294
15 *223:B2 *95:10 2.07184e-05
16 *227:A *224:A1 8.65961e-05
17 *227:A *224:B1 7.16008e-05
18 *227:A *229:B2 7.06865e-05
19 *227:A *230:A1 0.000238201
20 *227:A *301:A 7.23533e-05
21 *231:A2 *274:RESET_B 0.000228613
22 *231:A2 *36:76 8.71886e-05
23 *231:A2 *83:16 0
24 *231:A2 *86:19 0.000117825
25 *231:A2 *95:10 0.000236918
26 *32:8 *218:A 8.40213e-05
27 *32:8 *79:14 5.062e-06
28 *32:29 *229:B2 8.53113e-06
29 *32:29 *281:A 1.52184e-05
30 *32:29 *301:A 6.61904e-05
31 *32:29 *35:40 0
32 *32:29 *82:49 6.11019e-05
33 *32:29 *95:10 0.000178314
34 *32:33 *224:A2 1.91597e-05
35 *32:33 *227:B 4.25177e-05
36 *32:33 *228:A2 7.08493e-05
37 *32:33 *281:A 0.000119756
38 *32:33 *95:10 0.000304672
39 count[1] *227:A 0.000158066
40 *272:D *227:A 8.53113e-06
41 *288:A *227:A 3.9442e-05
*RES
1 *218:Y *32:8 4.74 
2 *32:8 *227:A 14.035 
3 *32:8 *32:29 2.91 
4 *32:29 *32:33 5.21 
5 *32:33 *231:A2 10.535 
6 *32:33 *228:A1 1.6 
7 *32:29 *223:B2 8.715 
*END

*D_NET *33 0.000720267
*CONN
*I *223:A2 I *D sky130_fd_sc_hd__a22o_1
*I *219:Y O *D sky130_fd_sc_hd__inv_2
*CAP
1 *223:A2 0.000253302
2 *219:Y 0.000253302
3 *223:A2 *224:B1 3.86607e-05
4 *223:A2 *227:B 3.64522e-05
5 *223:A2 *272:RESET_B 0
6 *223:A2 *82:49 0.000138551
7 *223:A2 *83:53 0
8 *299:A *223:A2 0
*RES
1 *219:Y *223:A2 11.01 
*END

*D_NET *34 0.000256388
*CONN
*I *239:A2 I *D sky130_fd_sc_hd__o21ai_1
*I *220:Y O *D sky130_fd_sc_hd__inv_2
*CAP
1 *239:A2 8.37584e-05
2 *220:Y 8.37584e-05
3 *239:A2 *82:14 8.88715e-05
*RES
1 *220:Y *239:A2 4.685 
*END

*D_NET *35 0.0134682
*CONN
*I *265:B1 I *D sky130_fd_sc_hd__a22o_1
*I *256:B1 I *D sky130_fd_sc_hd__a22o_1
*I *250:B1 I *D sky130_fd_sc_hd__a22o_1
*I *223:B1 I *D sky130_fd_sc_hd__a22o_1
*I *229:B1 I *D sky130_fd_sc_hd__a22o_1
*I *235:B1 I *D sky130_fd_sc_hd__a22o_1
*I *242:B1 I *D sky130_fd_sc_hd__a221o_1
*I *270:B1 I *D sky130_fd_sc_hd__a22o_1
*I *221:Y O *D sky130_fd_sc_hd__nor2_2
*CAP
1 *265:B1 0.0011745
2 *256:B1 4.91282e-05
3 *250:B1 0
4 *223:B1 0
5 *229:B1 0
6 *235:B1 0
7 *242:B1 1.26231e-05
8 *270:B1 0.000214932
9 *221:Y 3.36225e-05
10 *35:100 0.0013907
11 *35:54 0.00098204
12 *35:42 0.00135372
13 *35:40 0.00107539
14 *35:28 0.00110346
15 *35:12 0.00084256
16 *35:8 0.000415949
17 *242:B1 *242:B2 1.31519e-05
18 *256:B1 *256:A2 0.000124895
19 *256:B1 *256:B2 9.53428e-06
20 *256:B1 *90:18 3.72916e-05
21 *265:B1 *258:A_N 6.18325e-06
22 *265:B1 *259:B 3.16057e-06
23 *265:B1 *265:A1 8.7152e-06
24 *265:B1 *305:A 0.000220077
25 *265:B1 *83:60 0
26 *265:B1 *90:12 9.37731e-05
27 *270:B1 *242:B2 1.64996e-05
28 *270:B1 *242:C1 5.33085e-05
29 *270:B1 *270:A2 1.22762e-05
30 *270:B1 *285:A 7.23602e-05
31 *270:B1 *84:8 0.00010596
32 *270:B1 *84:29 1.34594e-05
33 *270:B1 *88:6 8.57024e-05
34 *270:B1 *88:19 0
35 *35:8 *221:B 1.08758e-05
36 *35:12 *250:A2 5.53249e-06
37 *35:12 *82:62 8.08153e-06
38 *35:12 *82:73 3.69491e-05
39 *35:12 *82:84 7.54998e-05
40 *35:12 *89:10 4.43871e-06
41 *35:28 *249:A 0
42 *35:28 *250:A1 3.07339e-05
43 *35:28 *251:A1 1.1392e-05
44 *35:28 *251:B1 8.40269e-05
45 *35:28 *82:62 0.000289321
46 *35:28 *89:22 3.09752e-05
47 *35:40 *224:A2 0.000227082
48 *35:40 *229:A1 4.82863e-05
49 *35:40 *230:A1 0.000186393
50 *35:40 *247:A 9.50342e-06
51 *35:40 *247:B 9.50342e-06
52 *35:40 *281:A 0.000105791
53 *35:40 *301:A 4.21973e-05
54 *35:40 *82:49 0.00014178
55 *35:40 *82:62 0
56 *35:40 *83:16 9.80032e-06
57 *35:42 *229:A1 4.99619e-05
58 *35:42 *229:A2 0.000124182
59 *35:42 *230:A1 0.000237948
60 *35:42 *230:A2 8.64421e-05
61 *35:42 *230:B1 4.89295e-05
62 *35:42 *235:A2 6.32751e-05
63 *35:54 *235:B2 8.65961e-05
64 *35:54 *236:A3 0.000271325
65 *35:54 *239:A1 8.97564e-05
66 *35:54 *239:B1 0.000131408
67 *35:54 *241:A2 0.000150453
68 *35:54 *242:A2 3.08098e-05
69 *35:54 *36:61 6.1452e-05
70 *35:54 *36:63 1.23244e-05
71 *35:54 *48:14 9.14049e-05
72 *35:54 *50:10 0.000139245
73 *35:54 *82:14 0
74 *35:54 *82:119 0.000140903
75 *35:54 *84:29 5.37119e-05
76 *35:54 *87:21 0
77 *35:54 *87:32 0
78 *35:54 *88:6 6.27029e-05
79 *35:54 *94:10 0
80 *35:100 *256:A1 0
81 *35:100 *82:84 1.22884e-05
82 *35:100 *83:60 0
83 count[1] *35:40 2.8185e-05
84 count[1] *35:42 1.12578e-05
85 count[5] *265:B1 6.24871e-05
86 *223:B2 *35:40 9.66106e-05
87 *275:D *35:54 3.26889e-05
88 *288:A *35:28 9.80032e-06
89 *288:A *35:40 2.75229e-05
90 *293:A *35:42 7.35813e-05
91 *294:A *270:B1 5.98081e-06
92 *296:A *265:B1 2.56866e-05
93 *296:A *35:100 5.53249e-06
94 *299:A *35:28 0.000250609
95 *32:29 *35:40 0
*RES
1 *221:Y *35:8 4.05 
2 *35:8 *35:12 5.675 
3 *35:12 *35:28 13.975 
4 *35:28 *35:40 15.1 
5 *35:40 *35:42 10.8 
6 *35:42 *35:54 21.37 
7 *35:54 *270:B1 9.695 
8 *35:54 *242:B1 1.96 
9 *35:42 *235:B1 1.6 
10 *35:40 *229:B1 1.6 
11 *35:28 *223:B1 1.6 
12 *35:12 *250:B1 1.6 
13 *35:8 *35:100 2.4 
14 *35:100 *256:B1 5.1 
15 *35:100 *265:B1 10.7343 
*END

*D_NET *36 0.0124944
*CONN
*I *271:A1 I *D sky130_fd_sc_hd__a21o_1
*I *240:B1 I *D sky130_fd_sc_hd__o21ai_1
*I *224:A2 I *D sky130_fd_sc_hd__a21oi_1
*I *228:B1 I *D sky130_fd_sc_hd__o21a_1
*I *236:A1 I *D sky130_fd_sc_hd__a31o_1
*I *266:A1 I *D sky130_fd_sc_hd__a31o_1
*I *257:A1 I *D sky130_fd_sc_hd__a31o_1
*I *251:A1 I *D sky130_fd_sc_hd__a31o_1
*I *222:X O *D sky130_fd_sc_hd__and2b_2
*CAP
1 *271:A1 0
2 *240:B1 0
3 *224:A2 0.000590815
4 *228:B1 3.42817e-05
5 *236:A1 2.88377e-05
6 *266:A1 3.53446e-05
7 *257:A1 0
8 *251:A1 0.000111543
9 *222:X 0.000156593
10 *36:76 0.00132992
11 *36:63 0.000909221
12 *36:61 0.000665716
13 *36:59 0.00171821
14 *36:40 0.00174973
15 *36:27 0.000700204
16 *36:8 0.000482011
17 *224:A2 *227:B 4.57347e-05
18 *224:A2 *230:A1 7.10578e-05
19 *224:A2 *281:A 2.8185e-05
20 *224:A2 *95:10 0.000183029
21 *228:B1 *39:17 7.01303e-05
22 *228:B1 *83:16 2.30184e-05
23 *236:A1 *236:A3 3.24046e-05
24 *236:A1 *82:14 2.78732e-05
25 *251:A1 *251:A2 9.14049e-05
26 *251:A1 *251:A3 7.00889e-06
27 *251:A1 *57:38 0
28 *251:A1 *89:22 8.23457e-05
29 *266:A1 *266:B1 3.00381e-05
30 *36:8 *222:B 2.65814e-06
31 *36:27 *248:A 0.000185411
32 *36:27 *251:A2 0.000187766
33 *36:27 *255:B 0
34 *36:27 *57:38 0
35 *36:27 *83:60 5.2361e-05
36 *36:40 *277:RESET_B 0
37 *36:40 *305:A 0
38 *36:40 *83:60 0
39 *36:59 *263:A 0.00011201
40 *36:59 *265:B2 7.10593e-06
41 *36:59 *266:A3 0.000145055
42 *36:59 *266:B1 0.000274172
43 *36:59 *268:A 0
44 *36:59 *271:A2 3.09164e-05
45 *36:59 *271:B1 2.68721e-05
46 *36:59 *68:31 1.19928e-05
47 *36:61 *241:A2 8.70923e-05
48 *36:61 *242:A2 4.40899e-05
49 *36:61 *243:A1 3.25831e-05
50 *36:61 *243:A2 0
51 *36:61 *270:A1 0
52 *36:61 *271:B1 0.000138188
53 *36:61 *275:RESET_B 0
54 *36:61 *279:RESET_B 4.27658e-05
55 *36:61 *50:10 1.34361e-05
56 *36:61 *82:119 0
57 *36:61 *84:8 0
58 *36:63 *236:A3 8.79152e-05
59 *36:63 *239:B1 7.63204e-05
60 *36:63 *243:A1 0.000174526
61 *36:63 *50:10 6.28843e-05
62 *36:63 *82:14 6.67478e-05
63 *36:63 *87:45 0.000157714
64 *36:76 *236:A2 8.69182e-05
65 *36:76 *236:B1 0.000197269
66 *36:76 *274:RESET_B 5.80043e-05
67 *36:76 *95:10 0.000347685
68 *231:A2 *36:76 8.71886e-05
69 *277:D *36:40 0
70 *288:A *224:A2 0.000160723
71 *294:A *36:61 0
72 *32:33 *224:A2 1.91597e-05
73 *35:28 *251:A1 1.1392e-05
74 *35:40 *224:A2 0.000227082
75 *35:54 *36:61 6.1452e-05
76 *35:54 *36:63 1.23244e-05
*RES
1 *222:X *36:8 5.085 
2 *36:8 *251:A1 5.88 
3 *36:8 *36:27 5.505 
4 *36:27 *257:A1 3.6 
5 *36:27 *36:40 9.485 
6 *36:40 *266:A1 2.395 
7 *36:40 *36:59 18.02 
8 *36:59 *36:61 9.795 
9 *36:61 *36:63 5.46 
10 *36:63 *236:A1 4.215 
11 *36:63 *36:76 11.42 
12 *36:76 *228:B1 6.47 
13 *36:76 *224:A2 15.935 
14 *36:61 *240:B1 3.6 
15 *36:59 *271:A1 3.6 
*END

*D_NET *37 0.00114748
*CONN
*I *224:B1 I *D sky130_fd_sc_hd__a21oi_1
*I *223:X O *D sky130_fd_sc_hd__a22o_1
*CAP
1 *224:B1 0.000273499
2 *223:X 0.000273499
3 *224:B1 *219:A 0
4 *224:B1 *224:A1 2.05056e-05
5 *224:B1 *227:B 0.000337524
6 *224:B1 *272:RESET_B 0
7 *224:B1 *82:49 6.74403e-05
8 *223:A2 *224:B1 3.86607e-05
9 *227:A *224:B1 7.16008e-05
10 *272:D *224:B1 6.47516e-05
11 *288:A *224:B1 0
*RES
1 *223:X *224:B1 13.965 
*END

*D_NET *38 0.000289452
*CONN
*I *231:B1 I *D sky130_fd_sc_hd__o21a_1
*I *225:Y O *D sky130_fd_sc_hd__nand2b_1
*CAP
1 *231:B1 2.07196e-05
2 *225:Y 2.07196e-05
3 *231:B1 *225:B 0.000124007
4 *231:B1 *94:39 0.000124007
*RES
1 *225:Y *231:B1 4.34 
*END

*D_NET *39 0.00351659
*CONN
*I *227:B I *D sky130_fd_sc_hd__nand2_1
*I *228:A2 I *D sky130_fd_sc_hd__o21a_1
*I *231:A1 I *D sky130_fd_sc_hd__o21a_1
*I *226:X O *D sky130_fd_sc_hd__xor2_2
*CAP
1 *227:B 0.000457288
2 *228:A2 8.52288e-05
3 *231:A1 0.000196696
4 *226:X 0
5 *39:17 0.000684825
6 *39:4 0.000339004
7 *227:B *272:RESET_B 0
8 *227:B *281:A 0.000195476
9 *227:B *79:8 0.000493437
10 *231:A1 *226:A 8.69583e-05
11 *231:A1 *245:A_N 9.28507e-05
12 *231:A1 *83:16 9.10058e-05
13 *231:A1 *94:39 0.000103908
14 *39:17 *79:43 6.36142e-05
15 count[0] *227:B 2.3087e-05
16 *223:A2 *227:B 3.64522e-05
17 *224:A2 *227:B 4.57347e-05
18 *224:B1 *227:B 0.000337524
19 *228:B1 *39:17 7.01303e-05
20 *32:33 *227:B 4.25177e-05
21 *32:33 *228:A2 7.08493e-05
*RES
1 *226:X *39:4 1.6 
2 *39:4 *231:A1 6.19 
3 *39:4 *39:17 6.4 
4 *39:17 *228:A2 3.1 
5 *39:17 *227:B 16.535 
*END

*D_NET *40 0.00187376
*CONN
*I *230:A1 I *D sky130_fd_sc_hd__a21o_1
*I *227:Y O *D sky130_fd_sc_hd__nand2_1
*CAP
1 *230:A1 0.000482898
2 *227:Y 0.000482898
3 *230:A1 *224:A1 0.000160635
4 *230:A1 *301:A 1.37328e-05
5 *224:A2 *230:A1 7.10578e-05
6 *227:A *230:A1 0.000238201
7 *35:40 *230:A1 0.000186393
8 *35:42 *230:A1 0.000237948
*RES
1 *227:Y *230:A1 11.78 
*END

*D_NET *41 0.000777585
*CONN
*I *230:A2 I *D sky130_fd_sc_hd__a21o_1
*I *228:X O *D sky130_fd_sc_hd__o21a_1
*CAP
1 *230:A2 0.000246159
2 *228:X 0.000246159
3 *230:A2 *229:A2 8.52845e-05
4 *230:A2 *301:A 6.41909e-05
5 *230:A2 *79:12 3.6227e-05
6 *230:A2 *95:10 1.31233e-05
7 *35:42 *230:A2 8.64421e-05
*RES
1 *228:X *230:A2 11.67 
*END

*D_NET *42 0.000539179
*CONN
*I *230:B1 I *D sky130_fd_sc_hd__a21o_1
*I *229:X O *D sky130_fd_sc_hd__a22o_1
*CAP
1 *230:B1 0.000141748
2 *229:X 0.000141748
3 *230:B1 *229:A2 4.77719e-05
4 count[1] *230:B1 0.000150674
5 *273:D *230:B1 8.30853e-06
6 *35:42 *230:B1 4.89295e-05
*RES
1 *229:X *230:B1 9.66 
*END

*D_NET *43 0.00201035
*CONN
*I *244:A3 I *D sky130_fd_sc_hd__o31ai_4
*I *233:A I *D sky130_fd_sc_hd__nand2_1
*I *234:A I *D sky130_fd_sc_hd__or2_1
*I *231:X O *D sky130_fd_sc_hd__o21a_1
*CAP
1 *244:A3 0.000209012
2 *233:A 0.000156192
3 *234:A 0.000187166
4 *231:X 0
5 *43:6 0.00040232
6 *43:4 0.000267974
7 *233:A *233:B 0.0001288
8 *233:A *236:B1 1.94805e-05
9 *233:A *44:16 0
10 *233:A *82:14 0
11 *234:A *225:B 4.00687e-05
12 *234:A *44:8 3.94425e-05
13 *234:A *94:16 9.27255e-06
14 *234:A *94:39 2.70892e-05
15 *244:A3 *225:B 0.000204646
16 *244:A3 *244:A2 0.00012182
17 *244:A3 *310:A 0.000114492
18 *244:A3 *94:39 8.53113e-06
19 *43:6 *225:B 7.40446e-05
*RES
1 *231:X *43:4 1.6 
2 *43:4 *43:6 0.795 
3 *43:6 *234:A 4.135 
4 *43:6 *233:A 8.51 
5 *43:4 *244:A3 9.605 
*END

*D_NET *44 0.00295568
*CONN
*I *234:B I *D sky130_fd_sc_hd__or2_1
*I *244:A2 I *D sky130_fd_sc_hd__o31ai_4
*I *233:B I *D sky130_fd_sc_hd__nand2_1
*I *232:X O *D sky130_fd_sc_hd__xor2_1
*CAP
1 *234:B 0
2 *244:A2 0.000284833
3 *233:B 0.00014712
4 *232:X 0.000113312
5 *44:16 0.000644408
6 *44:8 0.000325768
7 *233:B *310:A 4.34733e-05
8 *233:B *86:10 4.18603e-06
9 *233:B *86:19 7.6098e-05
10 *244:A2 *244:B1 0.000123225
11 *244:A2 *54:12 2.68464e-05
12 *44:8 *225:A_N 2.22989e-05
13 *44:8 *87:45 0.000310394
14 *44:8 *94:16 0.000432277
15 *44:16 *244:B1 4.82863e-05
16 *44:16 *82:14 6.3089e-05
17 *233:A *233:B 0.0001288
18 *233:A *44:16 0
19 *234:A *44:8 3.94425e-05
20 *244:A3 *244:A2 0.00012182
*RES
1 *232:X *44:8 6.115 
2 *44:8 *44:16 7.555 
3 *44:16 *233:B 9.53 
4 *44:16 *244:A2 6.205 
5 *44:8 *234:B 1.6 
*END

*D_NET *45 0.000566673
*CONN
*I *236:A2 I *D sky130_fd_sc_hd__a31o_1
*I *233:Y O *D sky130_fd_sc_hd__nand2_1
*CAP
1 *236:A2 7.63987e-05
2 *233:Y 7.63987e-05
3 *236:A2 *236:A3 2.75145e-05
4 *236:A2 *236:B1 0.000160635
5 *236:A2 *274:RESET_B 0.000138808
6 *36:76 *236:A2 8.69182e-05
*RES
1 *233:Y *236:A2 6.065 
*END

*D_NET *46 0.0013387
*CONN
*I *239:B1 I *D sky130_fd_sc_hd__o21ai_1
*I *236:A3 I *D sky130_fd_sc_hd__a31o_1
*I *234:X O *D sky130_fd_sc_hd__or2_1
*CAP
1 *239:B1 4.26495e-05
2 *236:A3 0.00020874
3 *234:X 6.43169e-05
4 *46:8 0.000315706
5 *236:A3 *236:B1 3.23663e-05
6 *236:A3 *82:14 0
7 *46:8 *87:45 4.80285e-05
8 *236:A1 *236:A3 3.24046e-05
9 *236:A2 *236:A3 2.75145e-05
10 *35:54 *236:A3 0.000271325
11 *35:54 *239:B1 0.000131408
12 *36:63 *236:A3 8.79152e-05
13 *36:63 *239:B1 7.63204e-05
*RES
1 *234:X *46:8 4.395 
2 *46:8 *236:A3 8.61 
3 *46:8 *239:B1 5.235 
*END

*D_NET *47 0.00110798
*CONN
*I *236:B1 I *D sky130_fd_sc_hd__a31o_1
*I *235:X O *D sky130_fd_sc_hd__a22o_1
*CAP
1 *236:B1 0.000250284
2 *235:X 0.000250284
3 *236:B1 *274:RESET_B 1.1561e-05
4 *236:B1 *82:14 8.89971e-05
5 *236:B1 *86:10 0
6 *233:A *236:B1 1.94805e-05
7 *236:A2 *236:B1 0.000160635
8 *236:A3 *236:B1 3.23663e-05
9 *274:D *236:B1 9.71067e-05
10 *36:76 *236:B1 0.000197269
*RES
1 *235:X *236:B1 13.665 
*END

*D_NET *48 0.00229642
*CONN
*I *241:A1 I *D sky130_fd_sc_hd__a21oi_1
*I *238:A I *D sky130_fd_sc_hd__inv_2
*I *240:A1 I *D sky130_fd_sc_hd__o21ai_1
*I *237:Y O *D sky130_fd_sc_hd__xnor2_1
*CAP
1 *241:A1 0
2 *238:A 0.000506931
3 *240:A1 2.08101e-05
4 *237:Y 0.000119187
5 *48:14 0.000575822
6 *48:6 0.000167268
7 *238:A *239:A1 0.000129436
8 *238:A *241:B1 0.000120655
9 *238:A *243:A1 0.000239813
10 *238:A *262:B1 0
11 *238:A *101:25 0.000162917
12 *48:6 *242:C1 4.11678e-06
13 *48:14 *239:A1 1.83756e-05
14 *48:14 *241:B1 4.66108e-05
15 *48:14 *82:119 9.30717e-05
16 *35:54 *48:14 9.14049e-05
*RES
1 *237:Y *48:6 2.74 
2 *48:6 *48:14 5.575 
3 *48:14 *240:A1 1.96 
4 *48:14 *238:A 11.035 
5 *48:6 *241:A1 1.6 
*END

*D_NET *49 0.000383443
*CONN
*I *244:A1 I *D sky130_fd_sc_hd__o31ai_4
*I *238:Y O *D sky130_fd_sc_hd__inv_2
*CAP
1 *244:A1 0.000155179
2 *238:Y 0.000155179
3 *244:A1 *246:B 3.68769e-05
4 *244:A1 *54:12 3.62086e-05
5 *280:A *244:A1 0
*RES
1 *238:Y *244:A1 9.63 
*END

*D_NET *50 0.000843474
*CONN
*I *241:A2 I *D sky130_fd_sc_hd__a21oi_1
*I *240:A2 I *D sky130_fd_sc_hd__o21ai_1
*I *239:Y O *D sky130_fd_sc_hd__o21ai_1
*CAP
1 *241:A2 9.11251e-05
2 *240:A2 0
3 *239:Y 7.99107e-05
4 *50:10 0.000171036
5 *50:10 *82:14 4.82919e-05
6 *35:54 *241:A2 0.000150453
7 *35:54 *50:10 0.000139245
8 *36:61 *241:A2 8.70923e-05
9 *36:61 *50:10 1.34361e-05
10 *36:63 *50:10 6.28843e-05
*RES
1 *239:Y *50:10 5.685 
2 *50:10 *240:A2 3.6 
3 *50:10 *241:A2 5.94 
*END

*D_NET *51 0.000800069
*CONN
*I *241:B1 I *D sky130_fd_sc_hd__a21oi_1
*I *240:Y O *D sky130_fd_sc_hd__o21ai_1
*CAP
1 *241:B1 0.000214403
2 *240:Y 0.000214403
3 *241:B1 *239:A1 1.03423e-05
4 *241:B1 *285:A 0.000100577
5 *241:B1 *82:119 9.30787e-05
6 *238:A *241:B1 0.000120655
7 *48:14 *241:B1 4.66108e-05
*RES
1 *240:Y *241:B1 10.5 
*END

*D_NET *52 0.000583691
*CONN
*I *242:C1 I *D sky130_fd_sc_hd__a221o_1
*I *241:Y O *D sky130_fd_sc_hd__a21oi_1
*CAP
1 *242:C1 0.000205002
2 *241:Y 0.000205002
3 *242:C1 *237:B 7.23533e-05
4 *242:C1 *285:A 4.39079e-05
5 *270:B1 *242:C1 5.33085e-05
6 *294:A *242:C1 0
7 *48:6 *242:C1 4.11678e-06
*RES
1 *241:Y *242:C1 9.975 
*END

*D_NET *53 0.000512561
*CONN
*I *244:B1 I *D sky130_fd_sc_hd__o31ai_4
*I *243:Y O *D sky130_fd_sc_hd__o21bai_1
*CAP
1 *244:B1 0.000170525
2 *243:Y 0.000170525
3 *244:B1 *243:A1 0
4 *244:B1 *310:A 0
5 *244:B1 *82:14 0
6 *244:A2 *244:B1 0.000123225
7 *44:16 *244:B1 4.82863e-05
*RES
1 *243:Y *244:B1 10.32 
*END

*D_NET *54 0.00218398
*CONN
*I *262:A1 I *D sky130_fd_sc_hd__a31o_1
*I *311:A I *D sky130_fd_sc_hd__dlygate4sd1_1
*I *313:A I *D sky130_fd_sc_hd__clkbuf_1
*I *244:Y O *D sky130_fd_sc_hd__o31ai_4
*CAP
1 *262:A1 0
2 *311:A 2.99279e-05