*SPEF "ieee 1481-1999"
*DESIGN "counter"
*DATE "12:42:41 Wednesday December 04, 2024"
*VENDOR "The OpenROAD Project"
*PROGRAM "OpenROAD"
*VERSION "b16bda7e82721d10566ff7e2b68f1ff0be9f9e38"
*DESIGN_FLOW "NAME_SCOPE LOCAL" "PIN_CAP NONE"
*DIVIDER /
*DELIMITER :
*BUS_DELIMITER []
*T_UNIT 1 NS
*C_UNIT 1 PF
*R_UNIT 1 OHM
*L_UNIT 1 HENRY

*NAME_MAP
*3 clk
*4 count[0]
*5 count[1]
*6 count[2]
*7 count[3]
*8 count[4]
*9 count[5]
*10 count[6]
*11 count[7]
*12 data[0]
*13 data[1]
*14 data[2]
*15 data[3]
*16 data[4]
*17 data[5]
*18 data[6]
*19 data[7]
*20 enable
*21 preload
*22 resetn
*23 up_down
*24 _000_
*25 _001_
*26 _002_
*27 _003_
*28 _004_
*29 _005_
*30 _006_
*31 _007_
*32 _008_
*33 _009_
*34 _010_
*35 _011_
*36 _012_
*37 _013_
*38 _014_
*39 _015_
*40 _016_
*41 _017_
*42 _018_
*43 _019_
*44 _020_
*45 _021_
*46 _022_
*47 _023_
*48 _024_
*49 _025_
*50 _026_
*51 _027_
*52 _028_
*53 _029_
*54 _030_
*55 _031_
*56 _032_
*57 _033_
*58 _034_
*59 _035_
*60 _036_
*61 _037_
*62 _038_
*63 _039_
*64 _040_
*65 _041_
*66 _042_
*67 _043_
*68 _044_
*69 _045_
*70 _046_
*71 _047_
*72 _048_
*73 _049_
*74 _050_
*75 _051_
*76 _052_
*77 _053_
*78 clknet_0_clk
*79 clknet_1_0__leaf_clk
*80 clknet_1_1__leaf_clk
*81 net1
*82 net10
*83 net11
*84 net12
*85 net13
*86 net14
*87 net15
*88 net16
*89 net17
*90 net18
*91 net19
*92 net2
*93 net20
*94 net21
*95 net22
*96 net23
*97 net24
*98 net25
*99 net26
*100 net27
*101 net28
*102 net29
*103 net3
*104 net30
*105 net4
*106 net5
*107 net6
*108 net7
*109 net8
*110 net9
*111 FILLER_0_0_22
*112 FILLER_0_0_27
*113 FILLER_0_0_29
*114 FILLER_0_0_3
*115 FILLER_0_0_55
*116 FILLER_0_0_57
*117 FILLER_0_0_77
*118 FILLER_0_10_10
*119 FILLER_0_10_18
*120 FILLER_0_10_26
*121 FILLER_0_10_29
*122 FILLER_0_10_33
*123 FILLER_0_10_56
*124 FILLER_0_10_68
*125 FILLER_0_11_14
*126 FILLER_0_11_22
*127 FILLER_0_11_30
*128 FILLER_0_11_51
*129 FILLER_0_11_55
*130 FILLER_0_11_57
*131 FILLER_0_11_69
*132 FILLER_0_11_77
*133 FILLER_0_12_15
*134 FILLER_0_12_27
*135 FILLER_0_12_29
*136 FILLER_0_12_3
*137 FILLER_0_12_37
*138 FILLER_0_12_44
*139 FILLER_0_12_48
*140 FILLER_0_12_57
*141 FILLER_0_12_69
*142 FILLER_0_12_77
*143 FILLER_0_1_44
*144 FILLER_0_1_55
*145 FILLER_0_1_57
*146 FILLER_0_2_13
*147 FILLER_0_2_21
*148 FILLER_0_2_27
*149 FILLER_0_2_36
*150 FILLER_0_2_69
*151 FILLER_0_2_7
*152 FILLER_0_3_10
*153 FILLER_0_3_45
*154 FILLER_0_3_55
*155 FILLER_0_3_64
*156 FILLER_0_4_18
*157 FILLER_0_4_26
*158 FILLER_0_4_3
*159 FILLER_0_5_12
*160 FILLER_0_5_17
*161 FILLER_0_5_42
*162 FILLER_0_6_14
*163 FILLER_0_6_26
*164 FILLER_0_6_29
*165 FILLER_0_6_57
*166 FILLER_0_6_76
*167 FILLER_0_7_38
*168 FILLER_0_7_52
*169 FILLER_0_7_68
*170 FILLER_0_8_14
*171 FILLER_0_8_26
*172 FILLER_0_8_3
*173 FILLER_0_9_24
*174 FILLER_0_9_3
*175 FILLER_0_9_50
*176 FILLER_0_9_57
*177 PHY_EDGE_ROW_0_Left_13
*178 PHY_EDGE_ROW_0_Right_0
*179 PHY_EDGE_ROW_10_Left_23
*180 PHY_EDGE_ROW_10_Right_10
*181 PHY_EDGE_ROW_11_Left_24
*182 PHY_EDGE_ROW_11_Right_11
*183 PHY_EDGE_ROW_12_Left_25
*184 PHY_EDGE_ROW_12_Right_12
*185 PHY_EDGE_ROW_1_Left_14
*186 PHY_EDGE_ROW_1_Right_1
*187 PHY_EDGE_ROW_2_Left_15
*188 PHY_EDGE_ROW_2_Right_2
*189 PHY_EDGE_ROW_3_Left_16
*190 PHY_EDGE_ROW_3_Right_3
*191 PHY_EDGE_ROW_4_Left_17
*192 PHY_EDGE_ROW_4_Right_4
*193 PHY_EDGE_ROW_5_Left_18
*194 PHY_EDGE_ROW_5_Right_5
*195 PHY_EDGE_ROW_6_Left_19
*196 PHY_EDGE_ROW_6_Right_6
*197 PHY_EDGE_ROW_7_Left_20
*198 PHY_EDGE_ROW_7_Right_7
*199 PHY_EDGE_ROW_8_Left_21
*200 PHY_EDGE_ROW_8_Right_8
*201 PHY_EDGE_ROW_9_Left_22
*202 PHY_EDGE_ROW_9_Right_9
*203 TAP_TAPCELL_ROW_0_26
*204 TAP_TAPCELL_ROW_0_27
*205 TAP_TAPCELL_ROW_10_37
*206 TAP_TAPCELL_ROW_11_38
*207 TAP_TAPCELL_ROW_12_39
*208 TAP_TAPCELL_ROW_12_40
*209 TAP_TAPCELL_ROW_1_28
*210 TAP_TAPCELL_ROW_2_29
*211 TAP_TAPCELL_ROW_3_30
*212 TAP_TAPCELL_ROW_4_31
*213 TAP_TAPCELL_ROW_5_32
*214 TAP_TAPCELL_ROW_6_33
*215 TAP_TAPCELL_ROW_7_34
*216 TAP_TAPCELL_ROW_8_35
*217 TAP_TAPCELL_ROW_9_36
*218 _054_
*219 _055_
*220 _056_
*221 _057_
*222 _058_
*223 _059_
*224 _060_
*225 _061_
*226 _062_
*227 _063_
*228 _064_
*229 _065_
*230 _066_
*231 _067_
*232 _068_
*233 _069_
*234 _070_
*235 _071_
*236 _072_
*237 _073_
*238 _074_
*239 _075_
*240 _076_
*241 _077_
*242 _078_
*243 _079_
*244 _080_
*245 _081_
*246 _082_
*247 _083_
*248 _084_
*249 _085_
*250 _086_
*251 _087_
*252 _088_
*253 _089_
*254 _090_
*255 _091_
*256 _092_
*257 _093_
*258 _094_
*259 _095_
*260 _096_
*261 _097_
*262 _098_
*263 _099_
*264 _100_
*265 _101_
*266 _102_
*267 _103_
*268 _104_
*269 _105_
*270 _106_
*271 _107_
*272 _108_
*273 _109_
*274 _110_
*275 _111_
*276 _112_
*277 _113_
*278 _114_
*279 _115_
*280 clkbuf_0_clk
*281 clkbuf_1_0__f_clk
*282 clkbuf_1_1__f_clk
*283 clkload0
*284 clone7
*285 fanout21
*286 hold8
*287 hold9
*288 input1
*289 input10
*290 input11
*291 input12
*292 input2
*293 input3
*294 input4
*295 input5
*296 input6
*297 input7
*298 input8
*299 input9
*300 output13
*301 output14
*302 output15
*303 output16
*304 output17
*305 output18
*306 output19
*307 output20
*308 rebuffer1
*309 rebuffer2
*310 rebuffer3
*311 rebuffer4
*312 rebuffer5
*313 rebuffer6

*PORTS
clk I
count[0] O
count[1] O
count[2] O
count[3] O
count[4] O
count[5] O
count[6] O
count[7] O
data[0] I
data[1] I
data[2] I
data[3] I
data[4] I
data[5] I
data[6] I
data[7] I
enable I
preload I
resetn I
up_down I

*D_NET *3 0.00441817
*CONN
*P clk I
*I *280:A I *D sky130_fd_sc_hd__clkbuf_16
*CAP
1 clk 0.00201573
2 *280:A 0.00201573
3 *280:A count[2] 3.19385e-05
4 *280:A count[3] 0
5 *280:A *225:B 0
6 *280:A *244:A1 0
7 *280:A *246:B 0.000128154
8 *280:A *276:CLK 0
9 *280:A *289:A 3.71658e-05
10 *280:A *101:10 0.000189455
*RES
1 clk *280:A 27.5559 
*END

*D_NET *4 0.00124945
*CONN
*P count[0] O
*I *300:X O *D sky130_fd_sc_hd__buf_2
*CAP
1 count[0] 0.000558224
2 *300:X 0.000558224
3 count[0] *227:B 2.22278e-05
4 count[0] *286:A 0.000110769
5 count[0] *85:25 0
*RES
1 *300:X count[0] 19.3786 
*END

*D_NET *5 0.00232881
*CONN
*P count[1] O
*I *301:X O *D sky130_fd_sc_hd__buf_2
*CAP
1 count[1] 0.000704131
2 *301:X 0.000704131
3 count[1] *227:A 0.00018077
4 count[1] *229:A1 2.44318e-05
5 count[1] *229:A2 0.000310532
6 count[1] *230:B1 0.000170174
7 count[1] *273:D 5.49544e-05
8 count[1] *292:A 0
9 count[1] *301:A 0.000137983
10 count[1] *35:40 2.95726e-05
11 count[1] *35:42 1.21289e-05
12 count[1] *82:24 0
*RES
1 *301:X count[1] 28.8536 
*END

*D_NET *6 0.000636125
*CONN
*P count[2] O
*I *302:X O *D sky130_fd_sc_hd__buf_2
*CAP
1 count[2] 0.000302093
2 *302:X 0.000302093
3 *280:A count[2] 3.19385e-05
*RES
1 *302:X count[2] 20.891 
*END

*D_NET *7 0.000814647
*CONN
*P count[3] O
*I *303:X O *D sky130_fd_sc_hd__buf_2
*CAP
1 count[3] 0.000292972
2 *303:X 0.000292972
3 count[3] *237:A 6.99087e-05
4 count[3] *237:B 6.97972e-05
5 count[3] *285:A 0
6 count[3] *289:A 3.45861e-05
7 count[3] *294:A 5.44117e-05
8 *280:A count[3] 0
*RES
1 *303:X count[3] 20.6235 
*END

*D_NET *8 0.000878492
*CONN
*P count[4] O
*I *304:X O *D sky130_fd_sc_hd__buf_2
*CAP
1 count[4] 0.000324862
2 *304:X 0.000324862
3 count[4] count[5] 0
4 count[4] *221:B 2.21972e-05
5 count[4] *296:A 7.60209e-05
6 count[4] *299:A 0.000109939
7 count[4] *82:84 2.06112e-05
*RES
1 *304:X count[4] 18.4832 
*END

*D_NET *9 0.000548576
*CONN
*P count[5] O
*I *305:X O *D sky130_fd_sc_hd__buf_2
*CAP
1 count[5] 0.000203747
2 *305:X 0.000203747
3 count[5] *265:B1 6.76337e-05
4 count[5] *296:A 7.3448e-05
5 count[4] count[5] 0
*RES
1 *305:X count[5] 18.73 
*END

*D_NET *10 0.00104409
*CONN
*P count[6] O
*I *306:X O *D sky130_fd_sc_hd__clkbuf_4
*CAP
1 count[6] 0.000515027
2 *306:X 0.000515027
3 count[6] *297:A 0
4 count[6] *306:A 1.40415e-05
*RES
1 *306:X count[6] 23.7107 
*END

*D_NET *11 0.000536637
*CONN
*P count[7] O
*I *307:X O *D sky130_fd_sc_hd__buf_2
*CAP
1 count[7] 0.000242507
2 *307:X 0.000242507
3 count[7] *291:A 0
4 count[7] *298:A 2.87684e-05
5 count[7] *93:25 2.28544e-05
*RES
1 *307:X count[7] 18.4985 
*END

*D_NET *12 0.00249954
*CONN
*P data[0] I
*I *288:A I *D sky130_fd_sc_hd__clkbuf_1
*CAP
1 data[0] 0.000814429
2 *288:A 0.000814429
3 *288:A *224:A2 0.000155502
4 *288:A *224:B1 0
5 *288:A *227:A 4.02462e-05
6 *288:A *272:D 3.97543e-05
7 *288:A *35:28 1.02821e-05
8 *288:A *35:40 2.89114e-05
9 *288:A *82:24 0
10 *288:A *82:49 0.000161683
11 *288:A *82:62 0.000122091
12 *288:A *83:16 0.000312215
*RES
1 data[0] *288:A 32.0143 
*END

*D_NET *13 0.00126388
*CONN
*P data[1] I
*I *292:A I *D sky130_fd_sc_hd__clkbuf_1
*CAP
1 data[1] 0.000631939
2 *292:A 0.000631939
3 *292:A *82:24 0
4 count[1] *292:A 0
*RES
1 data[1] *292:A 34.2464 
*END

*D_NET *14 0.00110514
*CONN
*P data[2] I
*I *293:A I *D sky130_fd_sc_hd__clkbuf_1
*CAP
1 data[2] 0.000486068
2 *293:A 0.000486068
3 *293:A *235:A2 5.52302e-05
4 *293:A *35:42 7.77751e-05
5 *293:A *82:14 0
6 *293:A *82:24 0
*RES
1 data[2] *293:A 23.3893 
*END

*D_NET *15 0.00162283
*CONN
*P data[3] I
*I *294:A I *D sky130_fd_sc_hd__clkbuf_1
*CAP
1 data[3] 0.000600915
2 *294:A 0.000600915
3 *294:A *242:A2 3.92854e-05
4 *294:A *242:B2 3.3982e-05
5 *294:A *242:C1 0
6 *294:A *270:A1 3.34366e-05
7 *294:A *270:B1 5.65523e-06
8 *294:A *291:A 5.65933e-05
9 *294:A *36:61 0
10 *294:A *82:123 0.000101545
11 *294:A *84:29 9.60939e-05
12 count[3] *294:A 5.44117e-05
*RES
1 data[3] *294:A 34.1031 
*END

*D_NET *16 0.0011019
*CONN
*P data[4] I
*I *295:A I *D sky130_fd_sc_hd__clkbuf_1
*CAP
1 data[4] 0.000364446
2 *295:A 0.000364446
3 *295:A *250:A2 0.000222217
4 *295:A *286:A 0
5 *295:A *290:A 2.8266e-06
6 *295:A *299:A 9.94734e-05
7 *295:A *82:62 1.08359e-05
8 *295:A *83:6 3.18676e-05
9 *295:A *83:53 0
10 *295:A *89:10 5.7836e-06
*RES
1 data[4] *295:A 21.8384 
*END

*D_NET *17 0.000440058
*CONN
*P data[5] I
*I *296:A I *D sky130_fd_sc_hd__clkbuf_1
*CAP
1 data[5] 0.00012891
2 *296:A 0.00012891
3 *296:A *265:B1 2.69614e-05
4 *296:A *35:100 5.80706e-06
5 count[4] *296:A 7.60209e-05
6 count[5] *296:A 7.3448e-05
*RES
1 data[5] *296:A 18.3544 
*END

*D_NET *18 0.00106569
*CONN
*P data[6] I
*I *297:A I *D sky130_fd_sc_hd__clkbuf_1
*CAP
1 data[6] 0.000529817
2 *297:A 0.000529817
3 *297:A *265:A2 6.05161e-06
4 count[6] *297:A 0
*RES
1 data[6] *297:A 23.9607 
*END

*D_NET *19 0.000639325
*CONN
*P data[7] I
*I *298:A I *D sky130_fd_sc_hd__clkbuf_1
*CAP
1 data[7] 0.000293981
2 *298:A 0.000293981
3 *298:A *291:A 2.25951e-05
4 *298:A *93:25 0
5 count[7] *298:A 2.87684e-05
*RES
1 data[7] *298:A 21.0874 
*END

*D_NET *20 0.00222155
*CONN
*P enable I
*I *299:A I *D sky130_fd_sc_hd__clkbuf_1
*CAP
1 enable 0.000567585
2 *299:A 0.000567585
3 *299:A *223:A2 0
4 *299:A *251:A2 0.000112056
5 *299:A *276:D 0
6 *299:A *35:28 0.000270943
7 *299:A *83:53 0.00015234
8 *299:A *83:60 0.000341633
9 count[4] *299:A 0.000109939
10 *295:A *299:A 9.94734e-05
*RES
1 enable *299:A 24.7708 
*END

*D_NET *21 0.000787277
*CONN
*P preload I
*I *289:A I *D sky130_fd_sc_hd__buf_2
*CAP
1 preload 0.000357763
2 *289:A 0.000357763
3 *289:A *94:10 0
4 count[3] *289:A 3.45861e-05
5 *280:A *289:A 3.71658e-05
*RES
1 preload *289:A 22.4947 
*END

*D_NET *22 0.000727978
*CONN
*P resetn I
*I *286:A I *D sky130_fd_sc_hd__dlygate4sd3_1
*CAP
1 resetn 0.000302175
2 *286:A 0.000302175
3 *286:A *272:RESET_B 1.28585e-05
4 count[0] *286:A 0.000110769
5 *295:A *286:A 0
*RES
1 resetn *286:A 18.4832 
*END

*D_NET *23 0.00144147
*CONN
*P up_down I
*I *291:A I *D sky130_fd_sc_hd__clkbuf_2
*CAP
1 up_down 0.000420928
2 *291:A 0.000420928
3 *291:A *270:B2 0.000113647
4 *291:A *84:8 0.00017904
5 *291:A *93:25 0.000227736
6 count[7] *291:A 0
7 *294:A *291:A 5.65933e-05
8 *298:A *291:A 2.25951e-05
*RES
1 up_down *291:A 22.3575 
*END

*D_NET *24 0.000230449
*CONN
*I *272:D I *D sky130_fd_sc_hd__dfrtp_1
*I *224:Y O *D sky130_fd_sc_hd__a21oi_1
*CAP
1 *272:D 5.74573e-05
2 *224:Y 5.74573e-05
3 *272:D *224:B1 6.65302e-05
4 *272:D *227:A 9.25014e-06
5 *288:A *272:D 3.97543e-05
*RES
1 *224:Y *272:D 29.2429 
*END

*D_NET *25 0.000421119
*CONN
*I *273:D I *D sky130_fd_sc_hd__dfrtp_1
*I *230:X O *D sky130_fd_sc_hd__a21o_1
*CAP
1 *273:D 0.000167102
2 *230:X 0.000167102
3 *273:D *229:A2 2.28499e-05
4 *273:D *230:B1 9.11048e-06
5 count[1] *273:D 5.49544e-05
*RES
1 *230:X *273:D 30.1893 
*END

*D_NET *26 0.000269178
*CONN
*I *274:D I *D sky130_fd_sc_hd__dfrtp_2
*I *236:X O *D sky130_fd_sc_hd__a31o_1
*CAP
1 *274:D 3.04684e-05
2 *236:X 3.04684e-05
3 *274:D *236:B1 0.000104974
4 *274:D *274:RESET_B 0.000103267
*RES
1 *236:X *274:D 28.9393 
*END

*D_NET *27 0.00106533
*CONN
*I *275:D I *D sky130_fd_sc_hd__dfrtp_1
*I *242:X O *D sky130_fd_sc_hd__a221o_1
*CAP
1 *275:D 0.000220222
2 *242:X 0.000220222
3 *275:D *243:A2 0.00024425
4 *275:D *35:54 3.57366e-05
5 *275:D *84:29 0.000313027
6 *275:D *88:6 3.18676e-05
*RES
1 *242:X *275:D 26.1357 
*END

*D_NET *28 0.000579404
*CONN
*I *276:D I *D sky130_fd_sc_hd__dfrtp_1
*I *251:X O *D sky130_fd_sc_hd__a31o_1
*CAP
1 *276:D 0.00015334
2 *251:X 0.00015334
3 *276:D *249:A 0.000129868
4 *276:D *251:A3 0.000142856
5 *276:D *313:A 0
6 *276:D *100:8 0
7 *299:A *276:D 0
*RES
1 *251:X *276:D 30.9036 
*END

*D_NET *29 0.000203942
*CONN
*I *277:D I *D sky130_fd_sc_hd__dfrtp_1
*I *257:X O *D sky130_fd_sc_hd__a31o_1
*CAP
1 *277:D 0.000101971
2 *257:X 0.000101971
3 *277:D *282:A 0
4 *277:D *36:40 0
*RES
1 *257:X *277:D 29.2429 
*END

*D_NET *30 0.000973356
*CONN
*I *278:D I *D sky130_fd_sc_hd__dfrtp_1
*I *266:X O *D sky130_fd_sc_hd__a31o_1
*CAP
1 *278:D 0.00027548
2 *266:X 0.00027548
3 *278:D *252:A 2.47753e-05
4 *278:D *259:B 7.15591e-05
5 *278:D *261:A2 6.05161e-06
6 *278:D *265:A1 2.16129e-06
7 *278:D *70:14 0.00019384
8 *278:D *80:19 0.00012401
*RES
1 *266:X *278:D 32.7518 
*END

*D_NET *31 0.000920135
*CONN
*I *279:D I *D sky130_fd_sc_hd__dfrtp_1
*I *271:X O *D sky130_fd_sc_hd__a21o_1
*CAP
1 *279:D 0.000335713
2 *271:X 0.000335713
3 *279:D *271:B1 3.92854e-05
4 *279:D *279:RESET_B 0.000181515
5 *279:D *84:8 2.79092e-05
*RES
1 *271:X *279:D 32.475 
*END

*D_NET *32 0.00558768
*CONN
*I *223:B2 I *D sky130_fd_sc_hd__a22o_1
*I *228:A1 I *D sky130_fd_sc_hd__o21a_1
*I *231:A2 I *D sky130_fd_sc_hd__o21a_1
*I *227:A I *D sky130_fd_sc_hd__nand2_1
*I *218:Y O *D sky130_fd_sc_hd__inv_2
*CAP
1 *223:B2 0.000192912
2 *228:A1 0
3 *231:A2 0.000152736
4 *227:A 0.000450212
5 *218:Y 0.000105313
6 *32:33 0.000257378
7 *32:29 0.000423762
8 *32:8 0.000681733
9 *223:B2 *245:A_N 2.89114e-05
10 *223:B2 *281:A 8.68665e-05
11 *223:B2 *35:40 0.000102207
12 *223:B2 *79:43 7.06079e-05
13 *223:B2 *82:62 3.99614e-06
14 *223:B2 *83:16 0.000356035
15 *223:B2 *95:10 2.24646e-05
16 *227:A *224:A1 9.90431e-05
17 *227:A *224:B1 7.7741e-05
18 *227:A *229:B2 7.6644e-05
19 *227:A *230:A1 0.000272019
20 *227:A *301:A 7.83587e-05
21 *231:A2 *274:RESET_B 0.000244184
22 *231:A2 *36:76 9.29691e-05
23 *231:A2 *83:16 0
24 *231:A2 *86:19 0.000127439
25 *231:A2 *95:10 0.000272744
26 *32:8 *218:A 9.60875e-05
27 *32:8 *79:14 5.19842e-06
28 *32:29 *229:B2 9.25014e-06
29 *32:29 *281:A 1.52978e-05
30 *32:29 *301:A 7.15449e-05
31 *32:29 *35:40 0
32 *32:29 *82:49 6.30388e-05
33 *32:29 *95:10 0.000193118
34 *32:33 *224:A2 1.98839e-05
35 *32:33 *227:B 4.51416e-05
36 *32:33 *228:A2 7.57312e-05
37 *32:33 *281:A 0.000136951
38 *32:33 *95:10 0.000349889
39 count[1] *227:A 0.00018077
40 *272:D *227:A 9.25014e-06
41 *288:A *227:A 4.02462e-05
*RES
1 *218:Y *32:8 15.1571 
2 *32:8 *227:A 30.4607 
3 *32:8 *32:29 3.46429 
4 *32:29 *32:33 8.32143 
5 *32:33 *231:A2 24.175 
6 *32:33 *228:A1 9.3 
7 *32:29 *223:B2 19.8893 
*END

*D_NET *33 0.000806951
*CONN
*I *223:A2 I *D sky130_fd_sc_hd__a22o_1
*I *219:Y O *D sky130_fd_sc_hd__inv_2
*CAP
1 *223:A2 0.000291105
2 *219:Y 0.000291105
3 *223:A2 *224:B1 3.92854e-05
4 *223:A2 *227:B 3.55443e-05
5 *223:A2 *272:RESET_B 0
6 *223:A2 *82:49 0.000149911
7 *223:A2 *83:53 0
8 *299:A *223:A2 0
*RES
1 *219:Y *223:A2 32.1357 
*END

*D_NET *34 0.000285176
*CONN
*I *239:A2 I *D sky130_fd_sc_hd__o21ai_1
*I *220:Y O *D sky130_fd_sc_hd__inv_2
*CAP
1 *239:A2 9.60325e-05
2 *220:Y 9.60325e-05
3 *239:A2 *82:14 9.3111e-05
*RES
1 *220:Y *239:A2 20.3679 
*END

*D_NET *35 0.0148801
*CONN
*I *265:B1 I *D sky130_fd_sc_hd__a22o_1
*I *256:B1 I *D sky130_fd_sc_hd__a22o_1
*I *250:B1 I *D sky130_fd_sc_hd__a22o_1
*I *223:B1 I *D sky130_fd_sc_hd__a22o_1
*I *229:B1 I *D sky130_fd_sc_hd__a22o_1
*I *235:B1 I *D sky130_fd_sc_hd__a22o_1
*I *242:B1 I *D sky130_fd_sc_hd__a221o_1
*I *270:B1 I *D sky130_fd_sc_hd__a22o_1
*I *221:Y O *D sky130_fd_sc_hd__nor2_2
*CAP
1 *265:B1 0.00127052
2 *256:B1 5.43892e-05
3 *250:B1 0
4 *223:B1 0
5 *229:B1 0
6 *235:B1 0
7 *242:B1 1.40858e-05
8 *270:B1 0.000248293
9 *221:Y 3.72345e-05
10 *35:100 0.00151417
11 *35:54 0.00111469
12 *35:42 0.00150626
13 *35:40 0.00120545
14 *35:28 0.00126589
15 *35:12 0.000961458
16 *35:8 0.000473575
17 *242:B1 *242:B2 1.40034e-05
18 *256:B1 *256:A2 0.00014285
19 *256:B1 *256:B2 1.04232e-05
20 *256:B1 *90:18 4.01768e-05
21 *265:B1 *258:A_N 5.81642e-06
22 *265:B1 *259:B 2.95076e-06
23 *265:B1 *265:A1 9.54798e-06
24 *265:B1 *305:A 0.000238126
25 *265:B1 *83:60 0
26 *265:B1 *90:12 0.000101545
27 *270:B1 *242:B2 1.8419e-05
28 *270:B1 *242:C1 5.7616e-05
29 *270:B1 *270:A2 1.19402e-05
30 *270:B1 *285:A 7.83659e-05
31 *270:B1 *84:8 0.000114759
32 *270:B1 *84:29 1.39841e-05
33 *270:B1 *88:6 9.80173e-05
34 *270:B1 *88:19 0
35 *35:8 *221:B 1.24368e-05
36 *35:12 *250:A2 5.80706e-06
37 *35:12 *82:62 7.79781e-06
38 *35:12 *82:73 3.49075e-05
39 *35:12 *82:84 7.36374e-05
40 *35:12 *89:10 4.46186e-06
41 *35:28 *249:A 0
42 *35:28 *250:A1 3.16001e-05
43 *35:28 *251:A1 1.07719e-05
44 *35:28 *251:B1 9.60939e-05
45 *35:28 *82:62 0.000330447
46 *35:28 *89:22 3.22422e-05
47 *35:40 *224:A2 0.000232272
48 *35:40 *229:A1 5.52238e-05
49 *35:40 *230:A1 0.000213179
50 *35:40 *247:A 1.02504e-05
51 *35:40 *247:B 1.02504e-05
52 *35:40 *281:A 0.000108314
53 *35:40 *301:A 4.43256e-05
54 *35:40 *82:49 0.000144313
55 *35:40 *82:62 0
56 *35:40 *83:16 1.02821e-05
57 *35:42 *229:A1 5.71472e-05
58 *35:42 *229:A2 0.000132284
59 *35:42 *230:A1 0.000273754
60 *35:42 *230:A2 9.99853e-05
61 *35:42 *230:B1 5.65955e-05
62 *35:42 *235:A2 6.78942e-05
63 *35:54 *235:B2 9.90431e-05
64 *35:54 *236:A3 0.000293559
65 *35:54 *239:A1 9.24395e-05
66 *35:54 *239:B1 0.00014209
67 *35:54 *241:A2 0.000162832
68 *35:54 *242:A2 3.52408e-05
69 *35:54 *36:61 5.98293e-05
70 *35:54 *36:63 1.18358e-05
71 *35:54 *48:14 9.91086e-05
72 *35:54 *50:10 0.000150625
73 *35:54 *82:14 0
74 *35:54 *82:119 0.000145295
75 *35:54 *84:29 5.65415e-05
76 *35:54 *87:21 0
77 *35:54 *87:32 0
78 *35:54 *88:6 6.57914e-05
79 *35:54 *94:10 0
80 *35:100 *256:A1 0
81 *35:100 *82:84 1.14671e-05
82 *35:100 *83:60 0
83 count[1] *35:40 2.95726e-05
84 count[1] *35:42 1.21289e-05
85 count[5] *265:B1 6.76337e-05
86 *223:B2 *35:40 0.000102207
87 *275:D *35:54 3.57366e-05
88 *288:A *35:28 1.02821e-05
89 *288:A *35:40 2.89114e-05
90 *293:A *35:42 7.77751e-05
91 *294:A *270:B1 5.65523e-06
92 *296:A *265:B1 2.69614e-05
93 *296:A *35:100 5.80706e-06
94 *299:A *35:28 0.000270943
95 *32:29 *35:40 0
*RES
1 *221:Y *35:8 14.3357 
2 *35:8 *35:12 8.875 
3 *35:12 *35:28 20.875 
4 *35:28 *35:40 22.2143 
5 *35:40 *35:42 12.8571 
6 *35:42 *35:54 29.6786 
7 *35:54 *270:B1 23.175 
8 *35:54 *242:B1 9.72857 
9 *35:42 *235:B1 9.3 
10 *35:40 *229:B1 9.3 
11 *35:28 *223:B1 9.3 
12 *35:12 *250:B1 9.3 
13 *35:8 *35:100 2.85714 
14 *35:100 *256:B1 15.5857 
15 *35:100 *265:B1 28.0082 
*END

*D_NET *36 0.0139629
*CONN
*I *271:A1 I *D sky130_fd_sc_hd__a21o_1
*I *240:B1 I *D sky130_fd_sc_hd__o21ai_1
*I *224:A2 I *D sky130_fd_sc_hd__a21oi_1
*I *228:B1 I *D sky130_fd_sc_hd__o21a_1
*I *236:A1 I *D sky130_fd_sc_hd__a31o_1
*I *266:A1 I *D sky130_fd_sc_hd__a31o_1
*I *257:A1 I *D sky130_fd_sc_hd__a31o_1
*I *251:A1 I *D sky130_fd_sc_hd__a31o_1
*I *222:X O *D sky130_fd_sc_hd__and2b_2
*CAP
1 *271:A1 0
2 *240:B1 0
3 *224:A2 0.00069206
4 *228:B1 4.11222e-05
5 *236:A1 3.40979e-05
6 *266:A1 3.85809e-05
7 *257:A1 0
8 *251:A1 0.000129291
9 *222:X 0.000181924
10 *36:76 0.00154304
11 *36:63 0.00105656
12 *36:61 0.000770822
13 *36:59 0.00194592
14 *36:40 0.00195608
15 *36:27 0.000767711
16 *36:8 0.000549133
17 *224:A2 *227:B 4.47762e-05
18 *224:A2 *230:A1 7.48091e-05
19 *224:A2 *281:A 2.95726e-05
20 *224:A2 *95:10 0.000209801
21 *228:B1 *39:17 7.6997e-05
22 *228:B1 *83:16 2.16315e-05
23 *236:A1 *236:A3 3.40128e-05
24 *236:A1 *82:14 2.84398e-05
25 *251:A1 *251:A2 9.91086e-05
26 *251:A1 *251:A3 7.43578e-06
27 *251:A1 *57:38 0
28 *251:A1 *89:22 9.41642e-05
29 *266:A1 *266:B1 3.18676e-05
30 *36:8 *222:B 2.51343e-06
31 *36:27 *248:A 0.00020042
32 *36:27 *251:A2 0.000202842
33 *36:27 *255:B 0
34 *36:27 *57:38 0
35 *36:27 *83:60 5.13896e-05
36 *36:40 *277:RESET_B 0
37 *36:40 *305:A 0
38 *36:40 *83:60 0
39 *36:59 *263:A 0.000119279
40 *36:59 *265:B2 6.8377e-06
41 *36:59 *266:A3 0.000152921
42 *36:59 *266:B1 0.000311948
43 *36:59 *268:A 0
44 *36:59 *271:A2 3.34295e-05
45 *36:59 *271:B1 2.82057e-05
46 *36:59 *68:31 1.21258e-05
47 *36:61 *241:A2 8.9163e-05
48 *36:61 *242:A2 4.25809e-05
49 *36:61 *243:A1 3.51442e-05
50 *36:61 *243:A2 0
51 *36:61 *270:A1 0
52 *36:61 *271:B1 0.000142317
53 *36:61 *275:RESET_B 0
54 *36:61 *279:RESET_B 4.20435e-05
55 *36:61 *50:10 1.41029e-05
56 *36:61 *82:119 0
57 *36:61 *84:8 0
58 *36:63 *236:A3 8.88666e-05
59 *36:63 *239:B1 7.83366e-05
60 *36:63 *243:A1 0.000188748
61 *36:63 *50:10 6.42338e-05
62 *36:63 *82:14 6.75979e-05
63 *36:63 *87:45 0.00017096
64 *36:76 *236:A2 9.16173e-05
65 *36:76 *236:B1 0.000225616
66 *36:76 *274:RESET_B 5.7256e-05
67 *36:76 *95:10 0.000400395
68 *231:A2 *36:76 9.29691e-05
69 *277:D *36:40 0
70 *288:A *224:A2 0.000155502
71 *294:A *36:61 0
72 *32:33 *224:A2 1.98839e-05
73 *35:28 *251:A1 1.07719e-05
74 *35:40 *224:A2 0.000232272
75 *35:54 *36:61 5.98293e-05
76 *35:54 *36:63 1.18358e-05
*RES
1 *222:X *36:8 15.5679 
2 *36:8 *251:A1 16.5143 
3 *36:8 *36:27 6.55357 
4 *36:27 *257:A1 13.8 
5 *36:27 *36:40 13.4107 
6 *36:40 *266:A1 10.2464 
7 *36:40 *36:59 23.5714 
8 *36:59 *36:61 11.6607 
9 *36:61 *36:63 6.5 
10 *36:63 *236:A1 14.5321 
11 *36:63 *36:76 15.7143 
12 *36:76 *228:B1 19.3357 
13 *36:76 *224:A2 30.6036 
14 *36:61 *240:B1 13.8 
15 *36:59 *271:A1 13.8 
*END

*D_NET *37 0.00126526
*CONN
*I *224:B1 I *D sky130_fd_sc_hd__a21oi_1
*I *223:X O *D sky130_fd_sc_hd__a22o_1
*CAP
1 *224:B1 0.000314948
2 *223:X 0.000314948
3 *224:B1 *219:A 0
4 *224:B1 *224:A1 2.14658e-05
5 *224:B1 *227:B 0.00036496
6 *224:B1 *272:RESET_B 0
7 *224:B1 *82:49 6.53781e-05
8 *223:A2 *224:B1 3.92854e-05
9 *227:A *224:B1 7.7741e-05
10 *272:D *224:B1 6.65302e-05
11 *288:A *224:B1 0
*RES
1 *223:X *224:B1 35.6536 
*END

*D_NET *38 0.000331861
*CONN
*I *231:B1 I *D sky130_fd_sc_hd__o21a_1
*I *225:Y O *D sky130_fd_sc_hd__nand2b_1
*CAP
1 *231:B1 2.41005e-05
2 *225:Y 2.41005e-05
3 *231:B1 *225:B 0.00014183
4 *231:B1 *94:39 0.00014183
*RES
1 *225:Y *231:B1 19.9571 
*END

*D_NET *39 0.00391808
*CONN
*I *227:B I *D sky130_fd_sc_hd__nand2_1
*I *228:A2 I *D sky130_fd_sc_hd__o21a_1
*I *231:A1 I *D sky130_fd_sc_hd__o21a_1
*I *226:X O *D sky130_fd_sc_hd__xor2_2
*CAP
1 *227:B 0.000520109
2 *228:A2 9.27744e-05
3 *231:A1 0.000220653
4 *226:X 0
5 *39:17 0.000778701
6 *39:4 0.000386471
7 *227:B *272:RESET_B 0
8 *227:B *281:A 0.000223558
9 *227:B *79:8 0.000564335
10 *231:A1 *226:A 0.000100261
11 *231:A1 *245:A_N 9.93955e-05
12 *231:A1 *83:16 9.69399e-05
13 *231:A1 *94:39 0.00010971
14 *39:17 *79:43 5.97986e-05
15 count[0] *227:B 2.22278e-05
16 *223:A2 *227:B 3.55443e-05
17 *224:A2 *227:B 4.47762e-05
18 *224:B1 *227:B 0.00036496
19 *228:B1 *39:17 7.6997e-05
20 *32:33 *227:B 4.51416e-05
21 *32:33 *228:A2 7.57312e-05
*RES
1 *226:X *39:4 9.3 
2 *39:4 *231:A1 14.7643 
3 *39:4 *39:17 11.8571 
4 *39:17 *228:A2 11.0857 
5 *39:17 *227:B 31.3179 
*END

*D_NET *40 0.00212621
*CONN
*I *230:A1 I *D sky130_fd_sc_hd__a21o_1
*I *227:Y O *D sky130_fd_sc_hd__nand2_1
*CAP
1 *230:A1 0.000547515
2 *227:Y 0.000547515
3 *230:A1 *224:A1 0.00018372
4 *230:A1 *301:A 1.3701e-05
5 *224:A2 *230:A1 7.48091e-05
6 *227:A *230:A1 0.000272019
7 *35:40 *230:A1 0.000213179
8 *35:42 *230:A1 0.000273754
*RES
1 *227:Y *230:A1 28.8143 
*END

*D_NET *41 0.000867527
*CONN
*I *230:A2 I *D sky130_fd_sc_hd__a21o_1
*I *228:X O *D sky130_fd_sc_hd__o21a_1
*CAP
1 *230:A2 0.000279495
2 *228:X 0.000279495
3 *230:A2 *229:A2 9.83388e-05
4 *230:A2 *301:A 6.12436e-05
5 *230:A2 *79:12 3.6337e-05
6 *230:A2 *95:10 1.26314e-05
7 *35:42 *230:A2 9.99853e-05
*RES
1 *228:X *230:A2 32.9214 
*END

*D_NET *42 0.000616637
*CONN
*I *230:B1 I *D sky130_fd_sc_hd__a21o_1
*I *229:X O *D sky130_fd_sc_hd__a22o_1
*CAP
1 *230:B1 0.000162904
2 *229:X 0.000162904
3 *230:B1 *229:A2 5.49489e-05
4 count[1] *230:B1 0.000170174
5 *273:D *230:B1 9.11048e-06
6 *35:42 *230:B1 5.65955e-05
*RES
1 *229:X *230:B1 30.5286 
*END

*D_NET *43 0.00227156
*CONN
*I *244:A3 I *D sky130_fd_sc_hd__o31ai_4
*I *233:A I *D sky130_fd_sc_hd__nand2_1
*I *234:A I *D sky130_fd_sc_hd__or2_1
*I *231:X O *D sky130_fd_sc_hd__o21a_1
*CAP
1 *244:A3 0.000242821
2 *233:A 0.000182115
3 *234:A 0.000213674
4 *231:X 0
5 *43:6 0.000464133
6 *43:4 0.000311164
7 *233:A *233:B 0.000131023
8 *233:A *236:B1 1.87955e-05
9 *233:A *44:16 0
10 *233:A *82:14 0
11 *234:A *225:B 4.32536e-05
12 *234:A *44:8 4.17741e-05
13 *234:A *94:16 9.22103e-06
14 *234:A *94:39 2.91851e-05
15 *244:A3 *225:B 0.000226816
16 *244:A3 *244:A2 0.000139637
17 *244:A3 *310:A 0.00012401
18 *244:A3 *94:39 9.25014e-06
19 *43:6 *225:B 8.46829e-05
*RES
1 *231:X *43:4 9.3 
2 *43:4 *43:6 0.946429 
3 *43:6 *234:A 12.3179 
4 *43:6 *233:A 21.7643 
5 *43:4 *244:A3 23.0679 
*END

*D_NET *44 0.00330274
*CONN
*I *234:B I *D sky130_fd_sc_hd__or2_1
*I *244:A2 I *D sky130_fd_sc_hd__o31ai_4
*I *233:B I *D sky130_fd_sc_hd__nand2_1
*I *232:X O *D sky130_fd_sc_hd__xor2_1
*CAP
1 *234:B 0
2 *244:A2 0.000313402
3 *233:B 0.000176284
4 *232:X 0.000129553
5 *44:16 0.000724558
6 *44:8 0.000364424
7 *233:B *310:A 4.14582e-05
8 *233:B *86:10 4.1331e-06
9 *233:B *86:19 7.38281e-05
10 *244:A2 *244:B1 0.000140933
11 *244:A2 *54:12 2.84026e-05
12 *44:8 *225:A_N 2.47137e-05
13 *44:8 *87:45 0.000355002
14 *44:8 *94:16 0.000493921
15 *44:16 *244:B1 5.52238e-05
16 *44:16 *82:14 6.44739e-05
17 *233:A *233:B 0.000131023
18 *233:A *44:16 0
19 *234:A *44:8 4.17741e-05
20 *244:A3 *244:A2 0.000139637
*RES
1 *232:X *44:8 14.675 
2 *44:8 *44:16 13.2321 
3 *44:16 *233:B 22.9786 
4 *44:16 *244:A2 14.7821 
5 *44:8 *234:B 9.3 
*END

*D_NET *45 0.000629271
*CONN
*I *236:A2 I *D sky130_fd_sc_hd__a31o_1
*I *233:Y O *D sky130_fd_sc_hd__nand2_1
*CAP
1 *236:A2 8.92499e-05
2 *233:Y 8.92499e-05
3 *236:A2 *236:A3 2.89016e-05
4 *236:A2 *236:B1 0.00018372
5 *236:A2 *274:RESET_B 0.000146533
6 *36:76 *236:A2 9.16173e-05
*RES
1 *233:Y *236:A2 22.0107 
*END

*D_NET *46 0.00147556
*CONN
*I *239:B1 I *D sky130_fd_sc_hd__o21ai_1
*I *236:A3 I *D sky130_fd_sc_hd__a31o_1
*I *234:X O *D sky130_fd_sc_hd__or2_1
*CAP
1 *239:B1 5.11107e-05
2 *236:A3 0.0002363
3 *234:X 7.48623e-05
4 *46:8 0.000362273
5 *236:A3 *236:B1 3.48705e-05
6 *236:A3 *82:14 0
7 *46:8 *87:45 5.03772e-05
8 *236:A1 *236:A3 3.40128e-05
9 *236:A2 *236:A3 2.89016e-05
10 *35:54 *236:A3 0.000293559
11 *35:54 *239:B1 0.00014209
12 *36:63 *236:A3 8.88666e-05
13 *36:63 *239:B1 7.83366e-05
*RES
1 *234:X *46:8 14.7464 
2 *46:8 *236:A3 19.7643 
3 *46:8 *239:B1 15.7464 
*END

*D_NET *47 0.00123332
*CONN
*I *236:B1 I *D sky130_fd_sc_hd__a31o_1
*I *235:X O *D sky130_fd_sc_hd__a22o_1
*CAP
1 *236:B1 0.000283388
2 *235:X 0.000283388
3 *236:B1 *274:RESET_B 1.17968e-05
4 *236:B1 *82:14 8.6769e-05
5 *236:B1 *86:10 0
6 *233:A *236:B1 1.87955e-05
7 *236:A2 *236:B1 0.00018372
8 *236:A3 *236:B1 3.48705e-05
9 *274:D *236:B1 0.000104974
10 *36:76 *236:B1 0.000225616
*RES
1 *235:X *236:B1 35.2964 
*END

*D_NET *48 0.00255667
*CONN
*I *241:A1 I *D sky130_fd_sc_hd__a21oi_1
*I *238:A I *D sky130_fd_sc_hd__inv_2
*I *240:A1 I *D sky130_fd_sc_hd__o21ai_1
*I *237:Y O *D sky130_fd_sc_hd__xnor2_1
*CAP
1 *241:A1 0
2 *238:A 0.000559947
3 *240:A1 2.23854e-05
4 *237:Y 0.000138642
5 *48:14 0.00064152
6 *48:6 0.000197829
7 *238:A *239:A1 0.00013731
8 *238:A *241:B1 0.000137983
9 *238:A *243:A1 0.000274294
10 *238:A *262:B1 0
11 *238:A *101:25 0.00017024
12 *48:6 *242:C1 4.00276e-06
13 *48:14 *239:A1 1.92789e-05
14 *48:14 *241:B1 5.33005e-05
15 *48:14 *82:119 0.000100823
16 *35:54 *48:14 9.91086e-05
*RES
1 *237:Y *48:6 10.6571 
2 *48:6 *48:14 10.875 
3 *48:14 *240:A1 9.72857 
4 *48:14 *238:A 20.5321 
5 *48:6 *241:A1 9.3 
*END

*D_NET *49 0.000426406
*CONN
*I *244:A1 I *D sky130_fd_sc_hd__o31ai_4
*I *238:Y O *D sky130_fd_sc_hd__inv_2
*CAP
1 *244:A1 0.00017835
2 *238:Y 0.00017835
3 *244:A1 *246:B 3.57163e-05
4 *244:A1 *54:12 3.39905e-05
5 *280:A *244:A1 0
*RES
1 *238:Y *244:A1 30.4929 
*END

*D_NET *50 0.000940937
*CONN
*I *241:A2 I *D sky130_fd_sc_hd__a21oi_1
*I *240:A2 I *D sky130_fd_sc_hd__o21ai_1
*I *239:Y O *D sky130_fd_sc_hd__o21ai_1
*CAP
1 *241:A2 0.000107422
2 *240:A2 0
3 *239:Y 9.49523e-05
4 *50:10 0.000202375
5 *50:10 *82:14 5.52302e-05
6 *35:54 *241:A2 0.000162832
7 *35:54 *50:10 0.000150625
8 *36:61 *241:A2 8.9163e-05
9 *36:61 *50:10 1.41029e-05
10 *36:63 *50:10 6.42338e-05
*RES
1 *239:Y *50:10 16.2821 
2 *50:10 *240:A2 13.8 
3 *50:10 *241:A2 16.5857 
*END

*D_NET *51 0.000915981
*CONN
*I *241:B1 I *D sky130_fd_sc_hd__a21oi_1
*I *240:Y O *D sky130_fd_sc_hd__o21ai_1
*CAP
1 *241:B1 0.000252631
2 *240:Y 0.000252631
3 *241:B1 *239:A1 1.00073e-05
4 *241:B1 *285:A 0.000108597
5 *241:B1 *82:119 0.000100831
6 *238:A *241:B1 0.000137983
7 *48:14 *241:B1 5.33005e-05
*RES
1 *240:Y *241:B1 31.5286 
*END

*D_NET *52 0.000659582
*CONN
*I *242:C1 I *D sky130_fd_sc_hd__a221o_1
*I *241:Y O *D sky130_fd_sc_hd__a21oi_1
*CAP
1 *242:C1 0.000237645
2 *241:Y 0.000237645
3 *242:C1 *237:B 7.83587e-05
4 *242:C1 *285:A 4.43142e-05
5 *270:B1 *242:C1 5.7616e-05
6 *294:A *242:C1 0
7 *48:6 *242:C1 4.00276e-06
*RES
1 *241:Y *242:C1 30.9036 
*END

*D_NET *53 0.000572009
*CONN
*I *244:B1 I *D sky130_fd_sc_hd__o31ai_4
*I *243:Y O *D sky130_fd_sc_hd__o21bai_1
*CAP
1 *244:B1 0.000187926
2 *243:Y 0.000187926
3 *244:B1 *243:A1 0
4 *244:B1 *310:A 0
5 *244:B1 *82:14 0
6 *244:A2 *244:B1 0.000140933
7 *44:16 *244:B1 5.52238e-05
*RES
1 *243:Y *244:B1 31.3143 
*END

*D_NET *54 0.00243758
*CONN
*I *262:A1 I *D sky130_fd_sc_hd__a31o_1