*SPEF "ieee 1481-1999"
*DESIGN "counter"
*DATE "12:46:33 Wednesday December 04, 2024"
*VENDOR "The OpenROAD Project"
*PROGRAM "OpenROAD"
*VERSION "b16bda7e82721d10566ff7e2b68f1ff0be9f9e38"
*DESIGN_FLOW "NAME_SCOPE LOCAL" "PIN_CAP NONE"
*DIVIDER /
*DELIMITER :
*BUS_DELIMITER []
*T_UNIT 1 NS
*C_UNIT 1 PF
*R_UNIT 1 OHM
*L_UNIT 1 HENRY

*NAME_MAP
*3 clk
*4 count[0]
*5 count[1]
*6 count[2]
*7 count[3]
*8 count[4]
*9 count[5]
*10 count[6]
*11 count[7]
*12 data[0]
*13 data[1]
*14 data[2]
*15 data[3]
*16 data[4]
*17 data[5]
*18 data[6]
*19 data[7]
*20 enable
*21 preload
*22 resetn
*23 up_down
*24 _000_
*25 _001_
*26 _002_
*27 _003_
*28 _004_
*29 _005_
*30 _006_
*31 _007_
*32 _008_
*33 _009_
*34 _010_
*35 _011_
*36 _012_
*37 _013_
*38 _014_
*39 _015_
*40 _016_
*41 _017_
*42 _018_
*43 _019_
*44 _020_
*45 _021_
*46 _022_
*47 _023_
*48 _024_
*49 _025_
*50 _026_
*51 _027_
*52 _028_
*53 _029_
*54 _030_
*55 _031_
*56 _032_
*57 _033_
*58 _034_
*59 _035_
*60 _036_
*61 _037_
*62 _038_
*63 _039_
*64 _040_
*65 _041_
*66 _042_
*67 _043_
*68 _044_
*69 _045_
*70 _046_
*71 _047_
*72 _048_
*73 _049_
*74 _050_
*75 _051_
*76 _052_
*77 _053_
*78 clknet_0_clk
*79 clknet_1_0__leaf_clk
*80 clknet_1_1__leaf_clk
*81 net1
*82 net10
*83 net11
*84 net12
*85 net13
*86 net14
*87 net15
*88 net16
*89 net17
*90 net18
*91 net19
*92 net2
*93 net20
*94 net21
*95 net22
*96 net23
*97 net3
*98 net4
*99 net5
*100 net6
*101 net7
*102 net8
*103 net9
*104 FILLER_0_0_15
*105 FILLER_0_0_27
*106 FILLER_0_0_29
*107 FILLER_0_0_3
*108 FILLER_0_0_37
*109 FILLER_0_0_51
*110 FILLER_0_0_64
*111 FILLER_0_10_19
*112 FILLER_0_10_27
*113 FILLER_0_10_29
*114 FILLER_0_10_33
*115 FILLER_0_10_62
*116 FILLER_0_11_30
*117 FILLER_0_11_57
*118 FILLER_0_11_69
*119 FILLER_0_11_7
*120 FILLER_0_11_77
*121 FILLER_0_12_15
*122 FILLER_0_12_27
*123 FILLER_0_12_29
*124 FILLER_0_12_3
*125 FILLER_0_12_37
*126 FILLER_0_12_44
*127 FILLER_0_12_48
*128 FILLER_0_12_57
*129 FILLER_0_12_69
*130 FILLER_0_12_77
*131 FILLER_0_1_51
*132 FILLER_0_1_55
*133 FILLER_0_1_57
*134 FILLER_0_2_15
*135 FILLER_0_2_23
*136 FILLER_0_2_27
*137 FILLER_0_2_29
*138 FILLER_0_2_35
*139 FILLER_0_2_65
*140 FILLER_0_2_7
*141 FILLER_0_2_73
*142 FILLER_0_3_17
*143 FILLER_0_3_26
*144 FILLER_0_3_30
*145 FILLER_0_3_43
*146 FILLER_0_3_51
*147 FILLER_0_3_55
*148 FILLER_0_3_61
*149 FILLER_0_3_67
*150 FILLER_0_3_76
*151 FILLER_0_4_19
*152 FILLER_0_4_25
*153 FILLER_0_4_29
*154 FILLER_0_4_37
*155 FILLER_0_4_54
*156 FILLER_0_4_69
*157 FILLER_0_4_7
*158 FILLER_0_5_10
*159 FILLER_0_5_21
*160 FILLER_0_5_38
*161 FILLER_0_5_57
*162 FILLER_0_6_10
*163 FILLER_0_6_22
*164 FILLER_0_6_29
*165 FILLER_0_6_52
*166 FILLER_0_7_31
*167 FILLER_0_7_35
*168 FILLER_0_7_57
*169 FILLER_0_8_13
*170 FILLER_0_8_25
*171 FILLER_0_8_29
*172 FILLER_0_8_33
*173 FILLER_0_8_37
*174 FILLER_0_8_41
*175 FILLER_0_8_6
*176 FILLER_0_8_72
*177 FILLER_0_9_11
*178 FILLER_0_9_20
*179 FILLER_0_9_26
*180 FILLER_0_9_3
*181 FILLER_0_9_53
*182 FILLER_0_9_57
*183 FILLER_0_9_70
*184 FILLER_0_9_74
*185 PHY_EDGE_ROW_0_Left_13
*186 PHY_EDGE_ROW_0_Right_0
*187 PHY_EDGE_ROW_10_Left_23
*188 PHY_EDGE_ROW_10_Right_10
*189 PHY_EDGE_ROW_11_Left_24
*190 PHY_EDGE_ROW_11_Right_11
*191 PHY_EDGE_ROW_12_Left_25
*192 PHY_EDGE_ROW_12_Right_12
*193 PHY_EDGE_ROW_1_Left_14
*194 PHY_EDGE_ROW_1_Right_1
*195 PHY_EDGE_ROW_2_Left_15
*196 PHY_EDGE_ROW_2_Right_2
*197 PHY_EDGE_ROW_3_Left_16
*198 PHY_EDGE_ROW_3_Right_3
*199 PHY_EDGE_ROW_4_Left_17
*200 PHY_EDGE_ROW_4_Right_4
*201 PHY_EDGE_ROW_5_Left_18
*202 PHY_EDGE_ROW_5_Right_5
*203 PHY_EDGE_ROW_6_Left_19
*204 PHY_EDGE_ROW_6_Right_6
*205 PHY_EDGE_ROW_7_Left_20
*206 PHY_EDGE_ROW_7_Right_7
*207 PHY_EDGE_ROW_8_Left_21
*208 PHY_EDGE_ROW_8_Right_8
*209 PHY_EDGE_ROW_9_Left_22
*210 PHY_EDGE_ROW_9_Right_9
*211 TAP_TAPCELL_ROW_0_26
*212 TAP_TAPCELL_ROW_0_27
*213 TAP_TAPCELL_ROW_10_37
*214 TAP_TAPCELL_ROW_11_38
*215 TAP_TAPCELL_ROW_12_39
*216 TAP_TAPCELL_ROW_12_40
*217 TAP_TAPCELL_ROW_1_28
*218 TAP_TAPCELL_ROW_2_29
*219 TAP_TAPCELL_ROW_3_30
*220 TAP_TAPCELL_ROW_4_31
*221 TAP_TAPCELL_ROW_5_32
*222 TAP_TAPCELL_ROW_6_33
*223 TAP_TAPCELL_ROW_7_34
*224 TAP_TAPCELL_ROW_8_35
*225 TAP_TAPCELL_ROW_9_36
*226 _054_
*227 _055_
*228 _056_
*229 _057_
*230 _058_
*231 _059_
*232 _060_
*233 _061_
*234 _062_
*235 _063_
*236 _064_
*237 _065_
*238 _066_
*239 _067_
*240 _068_
*241 _069_
*242 _070_
*243 _071_
*244 _072_
*245 _073_
*246 _074_
*247 _075_
*248 _076_
*249 _077_
*250 _078_
*251 _079_
*252 _080_
*253 _081_
*254 _082_
*255 _083_
*256 _084_
*257 _085_
*258 _086_
*259 _087_
*260 _088_
*261 _089_
*262 _090_
*263 _091_
*264 _092_
*265 _093_
*266 _094_
*267 _095_
*268 _096_
*269 _097_
*270 _098_
*271 _099_
*272 _100_
*273 _101_
*274 _102_
*275 _103_
*276 _104_
*277 _105_
*278 _106_
*279 _107_
*280 _108_
*281 _109_
*282 _110_
*283 _111_
*284 _112_
*285 _113_
*286 _114_
*287 _115_
*288 clkbuf_0_clk
*289 clkbuf_1_0__f_clk
*290 clkbuf_1_1__f_clk
*291 clkload0
*292 fanout21
*293 hold1
*294 hold2
*295 input1
*296 input10
*297 input11
*298 input12
*299 input2
*300 input3
*301 input4
*302 input5
*303 input6
*304 input7
*305 input8
*306 input9
*307 output13
*308 output14
*309 output15
*310 output16
*311 output17
*312 output18
*313 output19
*314 output20

*PORTS
clk I
count[0] O
count[1] O
count[2] O
count[3] O
count[4] O
count[5] O
count[6] O
count[7] O
data[0] I
data[1] I
data[2] I
data[3] I
data[4] I
data[5] I
data[6] I
data[7] I
enable I
preload I
resetn I
up_down I

*D_NET *3 0.00470385
*CONN
*P clk I
*I *288:A I *D sky130_fd_sc_hd__clkbuf_16
*CAP
1 clk 0.00200947
2 *288:A 0.00200947
3 *288:A count[2] 3.19385e-05
4 *288:A count[3] 0
5 *288:A *239:B1 2.74273e-05
6 *288:A *255:A 4.23086e-05
7 *288:A *270:A2 0.000164561
8 *288:A *270:A3 8.9163e-05
9 *288:A *287:CLK 0
10 *288:A *289:A 0
11 *288:A *296:A 3.19385e-05
12 *288:A *55:12 4.93285e-05
13 *288:A *57:10 0.000149904
14 *288:A *80:16 9.83388e-05
15 *288:A *94:66 0
*RES
1 clk *288:A 31.0023 
*END

*D_NET *4 0.00105613
*CONN
*P count[0] O
*I *307:X O *D sky130_fd_sc_hd__buf_2
*CAP
1 count[0] 0.000452014
2 *307:X 0.000452014
3 count[0] *231:A2 2.28904e-05
4 count[0] *293:A 0.000129215
*RES
1 *307:X count[0] 19.3065 
*END

*D_NET *5 0.000932743
*CONN
*P count[1] O
*I *308:X O *D sky130_fd_sc_hd__buf_2
*CAP
1 count[1] 0.000432794
2 *308:X 0.000432794
3 count[1] *238:A1 5.71472e-05
4 count[1] *299:A 0
5 count[1] *35:88 1.00073e-05
*RES
1 *308:X count[1] 21.6393 
*END

*D_NET *6 0.000636125
*CONN
*P count[2] O
*I *309:X O *D sky130_fd_sc_hd__buf_2
*CAP
1 count[2] 0.000302093
2 *309:X 0.000302093
3 *288:A count[2] 3.19385e-05
*RES
1 *309:X count[2] 20.891 
*END

*D_NET *7 0.000507242
*CONN
*P count[3] O
*I *310:X O *D sky130_fd_sc_hd__buf_2
*CAP
1 count[3] 0.000203773
2 *310:X 0.000203773
3 count[3] *296:A 2.25951e-05
4 count[3] *301:A 4.68796e-05
5 count[3] *82:14 2.06178e-05
6 count[3] *88:16 9.60337e-06
7 *288:A count[3] 0
*RES
1 *310:X count[3] 18.1949 
*END

*D_NET *8 0.000621896
*CONN
*P count[4] O
*I *311:X O *D sky130_fd_sc_hd__buf_2
*CAP
1 count[4] 0.000239781
2 *311:X 0.000239781
3 count[4] count[5] 0
4 count[4] *302:A 0
5 count[4] *303:A 7.60209e-05
6 count[4] *306:A 6.6313e-05
7 count[4] *83:30 0
*RES
1 *311:X count[4] 19.3371 
*END

*D_NET *9 0.000518471
*CONN
*P count[5] O
*I *312:X O *D sky130_fd_sc_hd__buf_2
*CAP
1 count[5] 0.000222512
2 *312:X 0.000222512
3 count[5] *303:A 7.3448e-05
4 count[5] *82:43 0
5 count[4] count[5] 0
*RES
1 *312:X count[5] 18.73 
*END

*D_NET *10 0.00103634
*CONN
*P count[6] O
*I *313:X O *D sky130_fd_sc_hd__clkbuf_4
*CAP
1 count[6] 0.00051817
2 *313:X 0.00051817
3 count[6] *304:A 0
*RES
1 *313:X count[6] 23.7107 
*END

*D_NET *11 0.000584613
*CONN
*P count[7] O
*I *314:X O *D sky130_fd_sc_hd__buf_2
*CAP
1 count[7] 0.000237991
2 *314:X 0.000237991
3 count[7] *305:A 5.40137e-05
4 count[7] *82:31 9.60337e-06
5 count[7] *93:12 4.50149e-05
*RES
1 *314:X count[7] 18.4985 
*END

*D_NET *12 0.002368
*CONN
*P data[0] I
*I *295:A I *D sky130_fd_sc_hd__clkbuf_1
*CAP
1 data[0] 0.000997492
2 *295:A 0.000997492
3 *295:A *227:A 6.29133e-05
4 *295:A *231:A2 5.41609e-05
5 *295:A *237:A1 0.000125684
6 *295:A *280:D 4.06875e-05
7 *295:A *32:12 0
8 *295:A *79:8 1.92905e-05
9 *295:A *82:121 6.42242e-05
10 *295:A *83:8 6.05161e-06
*RES
1 data[0] *295:A 33.0143 
*END

*D_NET *13 0.00112443
*CONN
*P data[1] I
*I *299:A I *D sky130_fd_sc_hd__clkbuf_1
*CAP
1 data[1] 0.000488864
2 *299:A 0.000488864
3 *299:A *231:B1 1.3701e-05
4 *299:A *238:A1 5.52302e-05
5 *299:A *238:B1 7.77751e-05
6 count[1] *299:A 0
*RES
1 data[1] *299:A 23.4429 
*END

*D_NET *14 0.00114347
*CONN
*P data[2] I
*I *300:A I *D sky130_fd_sc_hd__clkbuf_1
*CAP
1 data[2] 0.000458612
2 *300:A 0.000458612
3 *300:A *243:A2 1.92905e-05
4 *300:A *243:B1 0
5 *300:A *35:75 9.25014e-06
6 *300:A *35:88 0.000142856
7 *300:A *82:111 1.91418e-05
8 *300:A *82:121 3.5707e-05
*RES
1 data[2] *300:A 23.3893 
*END

*D_NET *15 0.00106784
*CONN
*P data[3] I
*I *301:A I *D sky130_fd_sc_hd__clkbuf_1
*CAP
1 data[3] 0.000451757
2 *301:A 0.000451757
3 *301:A *250:A2 4.87854e-05
4 *301:A *298:A 3.19385e-05
5 *301:A *305:A 0
6 *301:A *35:75 3.67257e-05
7 *301:A *82:14 0
8 count[3] *301:A 4.68796e-05
*RES
1 data[3] *301:A 24.3167 
*END

*D_NET *16 0.000683467
*CONN
*P data[4] I
*I *302:A I *D sky130_fd_sc_hd__clkbuf_1
*CAP
1 data[4] 0.000265127
2 *302:A 0.000265127
3 *302:A *293:A 0
4 *302:A *306:A 0.000105252
5 *302:A *83:17 4.79606e-05
6 count[4] *302:A 0
*RES
1 data[4] *302:A 19.1777 
*END

*D_NET *17 0.000646811
*CONN
*P data[5] I
*I *303:A I *D sky130_fd_sc_hd__clkbuf_1
*CAP
1 data[5] 0.000248671
2 *303:A 0.000248671
3 *303:A *258:B1 0
4 *303:A *35:25 0
5 count[4] *303:A 7.60209e-05
6 count[5] *303:A 7.3448e-05
*RES
1 data[5] *303:A 20.1758 
*END

*D_NET *18 0.00105928
*CONN
*P data[6] I
*I *304:A I *D sky130_fd_sc_hd__clkbuf_1
*CAP
1 data[6] 0.000529642
2 *304:A 0.000529642
3 count[6] *304:A 0
*RES
1 data[6] *304:A 23.9607 
*END

*D_NET *19 0.00152066
*CONN
*P data[7] I
*I *305:A I *D sky130_fd_sc_hd__clkbuf_1
*CAP
1 data[7] 0.000610789
2 *305:A 0.000610789
3 *305:A *276:A 0.000123673
4 *305:A *276:B 3.74593e-05
5 *305:A *277:B 1.56e-05
6 *305:A *287:RESET_B 4.57445e-05
7 *305:A *298:A 2.25951e-05
8 *305:A *82:18 0
9 *305:A *82:31 0
10 count[7] *305:A 5.40137e-05
11 *301:A *305:A 0
*RES
1 data[7] *305:A 33.6031 
*END

*D_NET *20 0.000915537
*CONN
*P enable I
*I *306:A I *D sky130_fd_sc_hd__buf_1
*CAP
1 enable 0.000339027
2 *306:A 0.000339027
3 *306:A *83:17 0
4 *306:A *83:30 0
5 *306:A *89:14 6.5919e-05
6 count[4] *306:A 6.6313e-05
7 *302:A *306:A 0.000105252
*RES
1 enable *306:A 21.9972 
*END

*D_NET *21 0.000619259
*CONN
*P preload I
*I *296:A I *D sky130_fd_sc_hd__buf_2
*CAP
1 preload 0.000279337
2 *296:A 0.000279337
3 *296:A *82:14 6.05161e-06
4 count[3] *296:A 2.25951e-05
5 *288:A *296:A 3.19385e-05
*RES
1 preload *296:A 20.7838 
*END

*D_NET *22 0.00133257
*CONN
*P resetn I
*I *293:A I *D sky130_fd_sc_hd__dlygate4sd3_1
*CAP
1 resetn 0.000531548
2 *293:A 0.000531548
3 *293:A *231:A2 0
4 *293:A *232:B1 0
5 *293:A *280:RESET_B 0.000140258
6 *293:A *85:14 0
7 count[0] *293:A 0.000129215
8 *302:A *293:A 0
*RES
1 resetn *293:A 22.7332 
*END

*D_NET *23 0.000577027
*CONN
*P up_down I
*I *298:A I *D sky130_fd_sc_hd__buf_1
*CAP
1 up_down 0.000261246
2 *298:A 0.000261246
3 *301:A *298:A 3.19385e-05
4 *305:A *298:A 2.25951e-05
*RES
1 up_down *298:A 20.4803 
*END

*D_NET *24 0.000610874
*CONN
*I *280:D I *D sky130_fd_sc_hd__dfrtp_1
*I *232:Y O *D sky130_fd_sc_hd__a21oi_1
*CAP
1 *280:D 0.000192619
2 *232:Y 0.000192619
3 *280:D *232:A1 1.92789e-05
4 *280:D *232:B1 0.00015642
5 *280:D *237:A1 9.25014e-06
6 *280:D *36:33 0
7 *295:A *280:D 4.06875e-05
*RES
1 *232:Y *280:D 31.9036 
*END

*D_NET *25 0.000527296
*CONN
*I *281:D I *D sky130_fd_sc_hd__dfrtp_1
*I *238:X O *D sky130_fd_sc_hd__a21o_1
*CAP
1 *281:D 0.000119902
2 *238:X 0.000119902
3 *281:D *238:A1 6.65302e-05
4 *281:D *308:A 0.000123495
5 *281:D *35:88 9.74665e-05
*RES
1 *238:X *281:D 30.1893 
*END

*D_NET *26 0.000597206
*CONN
*I *282:D I *D sky130_fd_sc_hd__dfrtp_2
*I *244:X O *D sky130_fd_sc_hd__a31o_1
*CAP
1 *282:D 0.000221393
2 *244:X 0.000221393
3 *282:D *244:B1 0.000100823
4 *282:D *36:46 2.51343e-06
5 *282:D *82:111 5.10822e-05
*RES
1 *244:X *282:D 30.7071 
*END

*D_NET *27 0.00147005
*CONN
*I *283:D I *D sky130_fd_sc_hd__dfrtp_1
*I *250:X O *D sky130_fd_sc_hd__a221o_1
*CAP
1 *283:D 0.000540752
2 *250:X 0.000540752
3 *283:D *250:A2 1.46576e-05
4 *283:D *250:B2 1.28809e-05
5 *283:D *250:C1 0.000160291
6 *283:D *35:61 1.39726e-05
7 *283:D *82:14 6.61048e-05
8 *283:D *88:6 5.03772e-05
9 *283:D *88:12 7.02611e-05
*RES
1 *250:X *283:D 29.0107 
*END

*D_NET *28 0.000786697
*CONN
*I *284:D I *D sky130_fd_sc_hd__dfrtp_1
*I *259:X O *D sky130_fd_sc_hd__a31o_1
*CAP
1 *284:D 0.000274169
2 *259:X 0.000274169
3 *284:D *259:A2 1.55885e-05
4 *284:D *259:B1 3.18676e-05
5 *284:D *265:A1 4.29179e-05
6 *284:D *274:A1 0
7 *284:D *36:14 8.07815e-06
8 *284:D *36:25 0.000139907
*RES
1 *259:X *284:D 31.8321 
*END

*D_NET *29 0.000322565
*CONN
*I *285:D I *D sky130_fd_sc_hd__dfrtp_1
*I *265:X O *D sky130_fd_sc_hd__a31o_1
*CAP
1 *285:D 0.000119113
2 *265:X 0.000119113
3 *285:D *265:A2 6.42242e-05
4 *285:D *274:A1 0
5 *285:D *80:12 2.8266e-06
6 *285:D *89:29 1.72894e-05
*RES
1 *265:X *285:D 29.7786 
*END

*D_NET *30 0.00199895
*CONN
*I *286:D I *D sky130_fd_sc_hd__dfrtp_1
*I *274:X O *D sky130_fd_sc_hd__a31o_1
*CAP
1 *286:D 0.00050386
2 *274:X 0.00050386
3 *286:D *263:B 4.45768e-06
4 *286:D *274:A1 0.000486241
5 *286:D *274:B1 0.000226507
6 *286:D *286:CLK 8.64516e-06
7 *286:D *312:A 0
8 *286:D *80:8 0.000265385
*RES
1 *274:X *286:D 37.4929 
*END

*D_NET *31 0.00151654
*CONN
*I *287:D I *D sky130_fd_sc_hd__dfrtp_1
*I *279:X O *D sky130_fd_sc_hd__a21o_1
*CAP
1 *287:D 0.000468289
2 *279:X 0.000468289
3 *287:D *287:CLK 0
4 *287:D *35:53 0.000579959
*RES
1 *279:X *287:D 34.7071 
*END

*D_NET *32 0.00293518
*CONN
*I *231:B2 I *D sky130_fd_sc_hd__a22o_1
*I *239:A1 I *D sky130_fd_sc_hd__o21a_1
*I *236:A1 I *D sky130_fd_sc_hd__o21a_1
*I *235:A I *D sky130_fd_sc_hd__nand2_1
*I *226:Y O *D sky130_fd_sc_hd__inv_2
*CAP
1 *231:B2 4.82816e-05
2 *239:A1 0.000214565
3 *236:A1 0
4 *235:A 1.86101e-05
5 *226:Y 0
6 *32:16 0.000197432
7 *32:12 0.000834431
8 *32:4 0.000489326
9 *231:B2 *226:A 6.20656e-05
10 *231:B2 *231:B1 0.000150539
11 *235:A *235:B 5.71472e-05
12 *239:A1 *239:A2 0.000322453
13 *239:A1 *36:27 0
14 *239:A1 *36:33 0
15 *239:A1 *79:12 4.02462e-05
16 *239:A1 *79:43 1.08359e-05
17 *32:12 *237:A2 0
18 *32:12 *238:A2 0
19 *32:12 *238:B1 0
20 *32:12 *36:33 0.000148105
21 *32:16 *235:B 2.73464e-05
22 *32:16 *236:B1 3.99614e-06
23 *32:16 *238:A2 0.000139054
24 *32:16 *36:33 0.000143721
25 *32:16 *36:46 2.70242e-05
26 *295:A *32:12 0
*RES
1 *226:Y *32:4 9.3 
2 *32:4 *32:12 16.5714 
3 *32:12 *32:16 4.25 
4 *32:16 *235:A 9.83571 
5 *32:16 *236:A1 9.3 
6 *32:12 *239:A1 23.5857 
7 *32:4 *231:B2 11.0857 
*END

*D_NET *33 0.0011611
*CONN
*I *231:A2 I *D sky130_fd_sc_hd__a22o_1
*I *227:Y O *D sky130_fd_sc_hd__inv_2
*CAP
1 *231:A2 0.000374749
2 *227:Y 0.000374749
3 *231:A2 *226:A 0.000186662
4 *231:A2 *232:B1 0.00014789
5 *231:A2 *237:A1 0
6 *231:A2 *82:121 0
7 count[0] *231:A2 2.28904e-05
8 *293:A *231:A2 0
9 *295:A *231:A2 5.41609e-05
*RES
1 *227:Y *231:A2 35.1 
*END

*D_NET *34 0.000413515
*CONN
*I *247:A2 I *D sky130_fd_sc_hd__o21ai_1
*I *228:Y O *D sky130_fd_sc_hd__inv_2
*CAP
1 *247:A2 2.68362e-05
2 *228:Y 2.68362e-05
3 *247:A2 *247:B1 9.90367e-05
4 *247:A2 *44:12 0.000186662
5 *247:A2 *87:43 7.41433e-05
*RES
1 *228:Y *247:A2 20.3679 
*END

*D_NET *35 0.0176988
*CONN
*I *264:B1 I *D sky130_fd_sc_hd__a22o_1
*I *273:B1 I *D sky130_fd_sc_hd__a22o_1
*I *278:B1 I *D sky130_fd_sc_hd__a22o_1
*I *250:B1 I *D sky130_fd_sc_hd__a221o_1
*I *231:B1 I *D sky130_fd_sc_hd__a22o_1
*I *237:B1 I *D sky130_fd_sc_hd__a22o_1
*I *243:B1 I *D sky130_fd_sc_hd__a22o_1
*I *258:B1 I *D sky130_fd_sc_hd__a22o_1
*I *229:Y O *D sky130_fd_sc_hd__nor2_2
*CAP
1 *264:B1 0
2 *273:B1 0.000388506
3 *278:B1 0
4 *250:B1 0
5 *231:B1 0.000446439
6 *237:B1 0.000167856
7 *243:B1 8.76831e-05
8 *258:B1 0.000154176
9 *229:Y 4.31419e-05
10 *35:88 0.00115088
11 *35:75 0.00191401
12 *35:61 0.00161885
13 *35:53 0.000991339
14 *35:43 0.00166026
15 *35:25 0.000808106
16 *35:8 0.000395888
17 *231:B1 *226:A 2.95726e-05
18 *231:B1 *237:A2 9.90367e-05
19 *231:B1 *238:B1 0.000214052
20 *237:B1 *238:A2 5.60819e-05
21 *237:B1 *280:CLK 1.24368e-05
22 *237:B1 *79:12 5.54655e-05
23 *237:B1 *79:14 1.98839e-05
24 *243:B1 *243:A2 2.85077e-05
25 *243:B1 *244:B1 2.28499e-05
26 *258:B1 *229:B 0.000391568
27 *258:B1 *82:45 2.00751e-05
28 *258:B1 *83:30 0.000272665
29 *273:B1 *273:A1 7.20217e-06
30 *273:B1 *273:B2 9.83442e-05
31 *273:B1 *274:A2 0.000187465
32 *273:B1 *287:CLK 0
33 *273:B1 *313:A 2.31791e-05
34 *273:B1 *82:31 2.64844e-05
35 *273:B1 *91:30 0.000150618
36 *35:25 *264:A1 2.44318e-05
37 *35:25 *264:A2 0.00018372
38 *35:25 *265:B1 9.76689e-05
39 *35:25 *82:45 4.8476e-05
40 *35:25 *90:40 4.72938e-06
41 *35:43 *274:A2 0.000375114
42 *35:43 *290:A 0.000209206
43 *35:43 *312:A 0.000176417
44 *35:43 *68:14 0.00014051
45 *35:43 *70:28 3.62991e-05
46 *35:43 *70:34 7.01032e-05
47 *35:43 *82:43 0.000577873
48 *35:43 *82:45 1.41706e-05
49 *35:53 *276:B 1.41029e-05
50 *35:53 *278:A2 3.48705e-05
51 *35:53 *279:A1 1.40415e-05
52 *35:53 *279:A2 2.89016e-05
53 *35:53 *279:B1 0.000220141
54 *35:53 *82:18 1.02504e-05
55 *35:53 *82:31 9.78605e-05
56 *35:53 *93:12 4.81157e-05
57 *35:61 *250:C1 1.3701e-05
58 *35:61 *276:B 9.24395e-05
59 *35:61 *82:14 5.52238e-05
60 *35:61 *82:18 0.000484585
61 *35:75 *244:B1 0.000320024
62 *35:75 *246:A 6.44449e-05
63 *35:75 *250:A2 3.67356e-05
64 *35:75 *250:B2 4.25619e-05
65 *35:75 *250:C1 9.22161e-05
66 *35:75 *252:A1 0.000259986
67 *35:75 *36:58 0.000157703
68 *35:75 *43:12 0.000124655
69 *35:75 *82:14 0
70 *35:75 *82:18 9.25014e-06
71 *35:75 *82:111 2.59093e-05
72 *35:75 *86:18 0
73 *35:75 *88:12 0.000148189
74 *35:75 *88:16 6.0038e-05
75 *35:75 *94:8 0
76 *35:75 *94:10 0
77 *35:75 *94:41 0.000482601
78 *35:88 *238:A1 8.50737e-05
79 *35:88 *238:B1 5.65955e-05
80 *35:88 *243:A2 7.48301e-06
81 *35:88 *244:B1 5.52302e-05
82 count[1] *35:88 1.00073e-05
83 *231:B2 *231:B1 0.000150539
84 *281:D *35:88 9.74665e-05
85 *283:D *35:61 1.39726e-05
86 *287:D *35:53 0.000579959
87 *299:A *231:B1 1.3701e-05
88 *300:A *243:B1 0
89 *300:A *35:75 9.25014e-06
90 *300:A *35:88 0.000142856
91 *301:A *35:75 3.67257e-05
92 *303:A *258:B1 0
93 *303:A *35:25 0
*RES
1 *229:Y *35:8 14.3357 
2 *35:8 *258:B1 19.3893 
3 *35:8 *35:25 9.46429 
4 *35:25 *35:43 25.3393 
5 *35:43 *35:53 18.4286 
6 *35:53 *35:61 12.0714 
7 *35:61 *35:75 41.8393 
8 *35:75 *243:B1 11.0857 
9 *35:75 *35:88 10 
10 *35:88 *237:B1 21.0857 
11 *35:88 *231:B1 17.0679 
12 *35:61 *250:B1 9.3 
13 *35:53 *278:B1 13.8 
14 *35:43 *273:B1 25.3357 
15 *35:25 *264:B1 9.3 
*END

*D_NET *36 0.0106964
*CONN
*I *265:A1 I *D sky130_fd_sc_hd__a31o_1
*I *274:A1 I *D sky130_fd_sc_hd__a31o_1
*I *232:A2 I *D sky130_fd_sc_hd__a21oi_1
*I *244:A1 I *D sky130_fd_sc_hd__a31o_1
*I *279:A1 I *D sky130_fd_sc_hd__a21o_1
*I *248:B1 I *D sky130_fd_sc_hd__o21ai_1
*I *236:B1 I *D sky130_fd_sc_hd__o21a_1
*I *259:A1 I *D sky130_fd_sc_hd__a31o_1
*I *230:X O *D sky130_fd_sc_hd__and2b_2
*CAP
1 *265:A1 0.000140044
2 *274:A1 0.000929789
3 *232:A2 3.72704e-05
4 *244:A1 0
5 *279:A1 0.00050934
6 *248:B1 0
7 *236:B1 2.05251e-05
8 *259:A1 0
9 *230:X 0
10 *36:58 0.000877621
11 *36:46 0.000960387
12 *36:33 0.00090765
13 *36:27 0.000480856
14 *36:25 0.00113476
15 *36:14 0.000311071
16 *36:6 0.000394712
17 *265:A1 *230:A_N 0
18 *265:A1 *259:B1 0.000101873
19 *265:A1 *265:A2 1.02504e-05
20 *265:A1 *82:47 0
21 *274:A1 *254:A_N 0
22 *274:A1 *259:A3 9.91086e-05
23 *274:A1 *262:B 0
24 *274:A1 *265:A2 0
25 *274:A1 *273:A2 0
26 *274:A1 *274:A2 0
27 *274:A1 *274:B1 3.18676e-05
28 *274:A1 *290:A 0
29 *274:A1 *62:10 0
30 *274:A1 *80:8 2.23987e-05
31 *274:A1 *80:12 0.000117388
32 *274:A1 *90:25 0
33 *279:A1 *246:A 1.19309e-05
34 *279:A1 *250:C1 0
35 *279:A1 *279:A2 2.56601e-05
36 *279:A1 *282:RESET_B 0.000401361
37 *279:A1 *287:RESET_B 0.00039229
38 *279:A1 *83:44 0.000125717
39 *36:14 *259:A3 0
40 *36:14 *259:B1 5.41494e-05
41 *36:14 *83:17 0
42 *36:25 *259:A2 5.33433e-05
43 *36:27 *232:B1 0
44 *36:27 *259:A3 3.34295e-05
45 *36:27 *284:CLK 0
46 *36:33 *232:B1 0
47 *36:33 *239:A2 8.23613e-05
48 *36:33 *79:8 0.00044468
49 *36:46 *235:B 0.000185964
50 *36:46 *239:A2 9.83442e-05
51 *36:58 *244:A2 0.000128146
52 *36:58 *244:A3 2.16719e-05
53 *36:58 *246:A 0.000191756
54 *36:58 *250:C1 0
55 *36:58 *251:A1 0.000103032
56 *36:58 *282:RESET_B 3.06078e-05
57 *36:58 *82:111 5.0833e-05
58 *239:A1 *36:27 0
59 *239:A1 *36:33 0
60 *280:D *36:33 0
61 *282:D *36:46 2.51343e-06
62 *284:D *265:A1 4.29179e-05
63 *284:D *274:A1 0
64 *284:D *36:14 8.07815e-06
65 *284:D *36:25 0.000139907
66 *285:D *274:A1 0
67 *286:D *274:A1 0.000486241
68 *32:12 *36:33 0.000148105
69 *32:16 *236:B1 3.99614e-06
70 *32:16 *36:33 0.000143721
71 *32:16 *36:46 2.70242e-05
72 *35:53 *279:A1 1.40415e-05
73 *35:75 *36:58 0.000157703
*RES
1 *230:X *36:6 13.8 
2 *36:6 *36:14 8.94643 
3 *36:14 *259:A1 9.3 
4 *36:14 *36:25 6.28571 
5 *36:25 *36:27 2.85714 
6 *36:27 *36:33 12.9286 
7 *36:33 *236:B1 9.72857 
8 *36:33 *36:46 10.0179 
9 *36:46 *36:58 13.75 
10 *36:58 *248:B1 13.8 
11 *36:58 *279:A1 25.9964 
12 *36:46 *244:A1 9.3 
13 *36:27 *232:A2 14.3357 
14 *36:25 *274:A1 31.9786 
15 *36:6 *265:A1 18.4071 
*END

*D_NET *37 0.00124291
*CONN
*I *232:B1 I *D sky130_fd_sc_hd__a21oi_1
*I *231:X O *D sky130_fd_sc_hd__a22o_1
*CAP
1 *232:B1 0.000366378
2 *231:X 0.000366378
3 *232:B1 *232:A1 0.00014285
4 *232:B1 *237:A1 6.2993e-05
5 *232:B1 *280:RESET_B 0
6 *232:B1 *83:17 0
7 *231:A2 *232:B1 0.00014789
8 *280:D *232:B1 0.00015642
9 *293:A *232:B1 0
10 *36:27 *232:B1 0
11 *36:33 *232:B1 0
*RES
1 *231:X *232:B1 36.0643 
*END

*D_NET *38 0.00100578
*CONN
*I *239:B1 I *D sky130_fd_sc_hd__o21a_1
*I *233:Y O *D sky130_fd_sc_hd__nand2b_1
*CAP
1 *239:B1 0.000231631
2 *233:Y 0.000231631
3 *239:B1 *256:B 7.57312e-05
4 *239:B1 *43:8 0.000355507
5 *239:B1 *57:10 3.53824e-05
6 *239:B1 *94:66 4.84678e-05
7 *288:A *239:B1 2.74273e-05
*RES
1 *233:Y *239:B1 33.6 
*END

*D_NET *39 0.00250655
*CONN
*I *239:A2 I *D sky130_fd_sc_hd__o21a_1
*I *236:A2 I *D sky130_fd_sc_hd__o21a_1
*I *235:B I *D sky130_fd_sc_hd__nand2_1
*I *234:X O *D sky130_fd_sc_hd__xor2_1
*CAP
1 *239:A2 0.000302233
2 *236:A2 0
3 *235:B 0.000124945
4 *234:X 0.000199118
5 *39:25 0.000302233
6 *39:10 0.000324063
7 *239:A2 *284:CLK 0.000179656
8 *239:A2 *79:8 5.52302e-05
9 *239:A2 *79:43 0.000153047
10 *39:10 *234:A 1.39726e-05
11 *39:10 *234:B 7.84356e-05
12 *235:A *235:B 5.71472e-05
13 *239:A1 *239:A2 0.000322453
14 *32:16 *235:B 2.73464e-05
15 *36:33 *239:A2 8.23613e-05
16 *36:46 *235:B 0.000185964
17 *36:46 *239:A2 9.83442e-05
*RES
1 *234:X *39:10 16.6036 
2 *39:10 *235:B 16.7286 
3 *39:10 *39:25 4.5 
4 *39:25 *236:A2 9.3 
5 *39:25 *239:A2 25.3714 
*END

*D_NET *40 0.00127674
*CONN
*I *238:A1 I *D sky130_fd_sc_hd__a21o_1
*I *235:Y O *D sky130_fd_sc_hd__nand2_1
*CAP
1 *238:A1 0.000471881
2 *235:Y 0.000471881
3 *238:A1 *238:B1 1.41744e-05
4 *238:A1 *308:A 5.48219e-05
5 *238:A1 *79:12 0
6 count[1] *238:A1 5.71472e-05
7 *281:D *238:A1 6.65302e-05
8 *299:A *238:A1 5.52302e-05
9 *35:88 *238:A1 8.50737e-05
*RES
1 *235:Y *238:A1 36.2429 
*END

*D_NET *41 0.00107985
*CONN
*I *238:A2 I *D sky130_fd_sc_hd__a21o_1
*I *236:X O *D sky130_fd_sc_hd__o21a_1
*CAP
1 *238:A2 0.000273166
2 *236:X 0.000273166
3 *238:A2 *237:A2 0.00015234
4 *238:A2 *238:B1 1.46717e-05
5 *238:A2 *79:12 0.000171368
6 *237:B1 *238:A2 5.60819e-05
7 *32:12 *238:A2 0
8 *32:16 *238:A2 0.000139054
*RES
1 *236:X *238:A2 33.3321 
*END

*D_NET *42 0.000800332
*CONN
*I *238:B1 I *D sky130_fd_sc_hd__a21o_1
*I *237:X O *D sky130_fd_sc_hd__a22o_1
*CAP
1 *238:B1 0.000191889
2 *237:X 0.000191889
3 *238:B1 *237:A2 3.92854e-05
4 *231:B1 *238:B1 0.000214052
5 *238:A1 *238:B1 1.41744e-05
6 *238:A2 *238:B1 1.46717e-05
7 *299:A *238:B1 7.77751e-05
8 *32:12 *238:B1 0
9 *35:88 *238:B1 5.65955e-05
*RES
1 *237:X *238:B1 32.2607 
*END

*D_NET *43 0.00290232
*CONN
*I *252:A1 I *D sky130_fd_sc_hd__o31ai_2
*I *242:A I *D sky130_fd_sc_hd__or2_1
*I *241:A I *D sky130_fd_sc_hd__nand2_1
*I *239:X O *D sky130_fd_sc_hd__o21a_1
*CAP
1 *252:A1 8.506e-05
2 *242:A 0.000102687
3 *241:A 0
4 *239:X 0.000673091
5 *43:12 0.000174037
6 *43:8 0.0008295
7 *242:A *242:B 1.00733e-05
8 *242:A *44:12 2.95726e-05
9 *242:A *44:23 3.39599e-05
10 *252:A1 *252:A2 0.000145584
11 *43:8 *252:A3 1.88665e-05
12 *43:12 *252:A2 5.97401e-05
13 *239:B1 *43:8 0.000355507
14 *35:75 *252:A1 0.000259986
15 *35:75 *43:12 0.000124655
*RES
1 *239:X *43:8 22.1393 
2 *43:8 *43:12 6.14286 
3 *43:12 *241:A 9.3 
4 *43:12 *242:A 11.0857 
5 *43:8 *252:A1 17.2643 
*END

*D_NET *44 0.00219109
*CONN
*I *241:B I *D sky130_fd_sc_hd__nand2_1
*I *252:A2 I *D sky130_fd_sc_hd__o31ai_2
*I *242:B I *D sky130_fd_sc_hd__or2_1
*I *240:X O *D sky130_fd_sc_hd__xor2_1
*CAP
1 *241:B 0
2 *252:A2 0.000202756
3 *242:B 1.60348e-05
4 *240:X 0.000384339
5 *44:23 0.000270846
6 *44:12 0.000468464
7 *252:A2 *252:A3 7.8327e-05
8 *252:A2 *94:66 0
9 *44:12 *244:A2 0.000137983
10 *44:12 *247:B1 7.05946e-05
11 *44:12 *87:43 4.88637e-05
12 *44:23 *233:A_N 0
13 *44:23 *244:A2 4.72917e-05
14 *242:A *242:B 1.00733e-05
15 *242:A *44:12 2.95726e-05
16 *242:A *44:23 3.39599e-05
17 *247:A2 *44:12 0.000186662
18 *252:A1 *252:A2 0.000145584
19 *43:12 *252:A2 5.97401e-05
*RES
1 *240:X *44:12 15.7464 
2 *44:12 *242:B 9.72857 
3 *44:12 *44:23 1.78571 
4 *44:23 *252:A2 23.2821 
5 *44:23 *241:B 9.3 
*END

*D_NET *45 0.000838575
*CONN
*I *244:A2 I *D sky130_fd_sc_hd__a31o_1
*I *241:Y O *D sky130_fd_sc_hd__nand2_1
*CAP
1 *244:A2 0.000198504
2 *241:Y 0.000198504
3 *244:A2 *244:A3 0.000128146
4 *36:58 *244:A2 0.000128146
5 *44:12 *244:A2 0.000137983
6 *44:23 *244:A2 4.72917e-05
*RES
1 *241:Y *244:A2 31.4214 
*END

*D_NET *46 0.000929328
*CONN
*I *244:A3 I *D sky130_fd_sc_hd__a31o_1
*I *247:B1 I *D sky130_fd_sc_hd__o21ai_1
*I *242:X O *D sky130_fd_sc_hd__or2_1
*CAP
1 *244:A3 7.47071e-05
2 *247:B1 7.15608e-05
3 *242:X 0
4 *46:4 0.000146268
5 *244:A3 *82:111 0.000175512
6 *247:B1 *87:43 0.00014183
7 *244:A2 *244:A3 0.000128146
8 *247:A2 *247:B1 9.90367e-05
9 *36:58 *244:A3 2.16719e-05
10 *44:12 *247:B1 7.05946e-05
*RES
1 *242:X *46:4 9.3 
2 *46:4 *247:B1 11.4786 
3 *46:4 *244:A3 20.55 
*END

*D_NET *47 0.000980686
*CONN
*I *244:B1 I *D sky130_fd_sc_hd__a31o_1
*I *243:X O *D sky130_fd_sc_hd__a22o_1
*CAP
1 *244:B1 0.000165089
2 *243:X 0.000165089
3 *244:B1 *82:111 0.000151581
4 *243:B1 *244:B1 2.28499e-05
5 *282:D *244:B1 0.000100823
6 *35:75 *244:B1 0.000320024
7 *35:88 *244:B1 5.52302e-05
*RES
1 *243:X *244:B1 32.6179 
*END

*D_NET *48 0.00157754
*CONN
*I *249:A1 I *D sky130_fd_sc_hd__a21oi_1
*I *246:A I *D sky130_fd_sc_hd__inv_2
*I *248:A1 I *D sky130_fd_sc_hd__o21ai_1
*I *245:Y O *D sky130_fd_sc_hd__xnor2_1
*CAP
1 *249:A1 0
2 *246:A 0.000184838
3 *248:A1 0
4 *245:Y 0.000113438
5 *48:15 0.000251603
6 *48:8 0.000180204
7 *246:A *250:C1 1.52978e-05
8 *48:8 *249:A2 1.04232e-05
9 *48:8 *251:A2 0.000186788
10 *48:8 *50:12 1.24368e-05
11 *48:15 *249:A2 8.72848e-05
12 *48:15 *249:B1 5.52302e-05
13 *48:15 *250:C1 6.21839e-05
14 *48:15 *251:A2 0.000139386
15 *48:15 *50:12 1.02936e-05
16 *279:A1 *246:A 1.19309e-05
17 *35:75 *246:A 6.44449e-05
18 *36:58 *246:A 0.000191756
*RES
1 *245:Y *48:8 11.8 
2 *48:8 *248:A1 9.3 
3 *48:8 *48:15 2.58929 
4 *48:15 *246:A 22.5143 
5 *48:15 *249:A1 9.3 
*END

*D_NET *49 0.000624682
*CONN
*I *252:A3 I *D sky130_fd_sc_hd__o31ai_2
*I *246:Y O *D sky130_fd_sc_hd__inv_2
*CAP
1 *252:A3 0.000263744
2 *246:Y 0.000263744
3 *252:A3 *94:56 0
4 *252:A3 *94:66 0
5 *252:A2 *252:A3 7.8327e-05
6 *43:8 *252:A3 1.88665e-05
*RES
1 *246:Y *252:A3 31.3143 
*END

*D_NET *50 0.00158376
*CONN
*I *249:A2 I *D sky130_fd_sc_hd__a21oi_1
*I *248:A2 I *D sky130_fd_sc_hd__o21ai_1
*I *247:Y O *D sky130_fd_sc_hd__o21ai_1
*CAP
1 *249:A2 0.000183926
2 *248:A2 0
3 *247:Y 0.000141681
4 *50:12 0.000325607
5 *249:A2 *250:C1 0.000204014
6 *249:A2 *251:A1 0.000266479
7 *249:A2 *251:A2 5.4684e-05
8 *50:12 *282:RESET_B 0.000142307
9 *50:12 *94:16 0.000144623
10 *48:8 *249:A2 1.04232e-05
11 *48:8 *50:12 1.24368e-05
12 *48:15 *249:A2 8.72848e-05
13 *48:15 *50:12 1.02936e-05
*RES
1 *247:Y *50:12 22.3 
2 *50:12 *248:A2 9.3 
3 *50:12 *249:A2 14.8179 
*END

*D_NET *51 0.000133673
*CONN
*I *249:B1 I *D sky130_fd_sc_hd__a21oi_1
*I *248:Y O *D sky130_fd_sc_hd__o21ai_1
*CAP
1 *249:B1 1.16062e-05
2 *248:Y 1.16062e-05
3 *249:B1 *251:A2 5.52302e-05
4 *48:15 *249:B1 5.52302e-05
*RES
1 *248:Y *249:B1 19.1357 
*END

*D_NET *52 0.00215518
*CONN
*I *250:C1 I *D sky130_fd_sc_hd__a221o_1
*I *249:Y O *D sky130_fd_sc_hd__a21oi_1
*CAP
1 *250:C1 0.000796027
2 *249:Y 0.000796027
3 *250:C1 *251:A2 1.5424e-05
4 *250:C1 *287:CLK 0
5 *246:A *250:C1 1.52978e-05
6 *249:A2 *250:C1 0.000204014
7 *279:A1 *250:C1 0
8 *283:D *250:C1 0.000160291
9 *35:61 *250:C1 1.3701e-05
10 *35:75 *250:C1 9.22161e-05
11 *36:58 *250:C1 0
12 *48:15 *250:C1 6.21839e-05
*RES
1 *249:Y *250:C1 40.5643 
*END

*D_NET *53 0.000589615
*CONN
*I *252:B1 I *D sky130_fd_sc_hd__o31ai_2
*I *251:Y O *D sky130_fd_sc_hd__o21bai_1
*CAP
1 *252:B1 0.000108945
2 *251:Y 0.000108945
3 *252:B1 *251:A1 5.68713e-05
4 *252:B1 *251:A2 0.000208074
5 *252:B1 *54:14 0.00010678
*RES
1 *251:Y *252:B1 22.2607 
*END

*D_NET *54 0.00445112
*CONN
*I *257:A I *D sky130_fd_sc_hd__nand2_1
*I *270:A1 I *D sky130_fd_sc_hd__a31o_1
*I *256:A I *D sky130_fd_sc_hd__or2_1
*I *261:A1 I *D sky130_fd_sc_hd__a21o_1
*I *252:Y O *D sky130_fd_sc_hd__o31ai_2
*CAP
1 *257:A 0.000274486
2 *270:A1 0.000151079
3 *256:A 0.000202074
4 *261:A1 0
5 *252:Y 0.000265489
6 *54:23 0.000353153
7 *54:21 0.000439342
8 *54:14 0.000430344
9 *256:A *256:B 0.00012073
10 *256:A *260:A 9.22948e-05
11 *256:A *284:CLK 0.000193118
12 *256:A *289:A 1.08847e-05
13 *256:A *94:107 0.000154339
14 *257:A *284:CLK 0.000354004
15 *270:A1 *253:B 8.91903e-05
16 *270:A1 *260:A 0.000148911
17 *270:A1 *269:B1_N 3.34295e-05
18 *270:A1 *270:B1 9.99853e-05
19 *270:A1 *289:A 4.98528e-05