*SPEF "ieee 1481-1999"
*DESIGN "counter"
*DATE "12:39:25 Wednesday December 04, 2024"
*VENDOR "The OpenROAD Project"
*PROGRAM "OpenROAD"
*VERSION "b16bda7e82721d10566ff7e2b68f1ff0be9f9e38"
*DESIGN_FLOW "NAME_SCOPE LOCAL" "PIN_CAP NONE"
*DIVIDER /
*DELIMITER :
*BUS_DELIMITER []
*T_UNIT 1 NS
*C_UNIT 1 PF
*R_UNIT 1 OHM
*L_UNIT 1 HENRY

*NAME_MAP
*3 clk
*4 count[0]
*5 count[1]
*6 count[2]
*7 count[3]
*8 count[4]
*9 count[5]
*10 count[6]
*11 count[7]
*12 data[0]
*13 data[1]
*14 data[2]
*15 data[3]
*16 data[4]
*17 data[5]
*18 data[6]
*19 data[7]
*20 enable
*21 preload
*22 resetn
*23 up_down
*24 _000_
*25 _001_
*26 _002_
*27 _003_
*28 _004_
*29 _005_
*30 _006_
*31 _007_
*32 _008_
*33 _009_
*34 _010_
*35 _011_
*36 _012_
*37 _013_
*38 _014_
*39 _015_
*40 _016_
*41 _017_
*42 _018_
*43 _019_
*44 _020_
*45 _021_
*46 _022_
*47 _023_
*48 _024_
*49 _025_
*50 _026_
*51 _027_
*52 _028_
*53 _029_
*54 _030_
*55 _031_
*56 _032_
*57 _033_
*58 _034_
*59 _035_
*60 _036_
*61 _037_
*62 _038_
*63 _039_
*64 _040_
*65 _041_
*66 _042_
*67 _043_
*68 _044_
*69 _045_
*70 _046_
*71 _047_
*72 _048_
*73 _049_
*74 _050_
*75 _051_
*76 _052_
*77 _053_
*78 clknet_0_clk
*79 clknet_1_0__leaf_clk
*80 clknet_1_1__leaf_clk
*81 net1
*82 net10
*83 net11
*84 net12
*85 net13
*86 net14
*87 net15
*88 net16
*89 net17
*90 net18
*91 net19
*92 net2
*93 net20
*94 net21
*95 net22
*96 net23
*97 net24
*98 net25
*99 net26
*100 net27
*101 net28
*102 net29
*103 net3
*104 net30
*105 net31
*106 net32
*107 net34
*108 net35
*109 net4
*110 net5
*111 net6
*112 net7
*113 net8
*114 net9
*115 FILLER_0_0_22
*116 FILLER_0_0_27
*117 FILLER_0_0_29
*118 FILLER_0_0_3
*119 FILLER_0_0_55
*120 FILLER_0_10_10
*121 FILLER_0_10_17
*122 FILLER_0_10_25
*123 FILLER_0_10_29
*124 FILLER_0_10_54
*125 FILLER_0_10_66
*126 FILLER_0_11_14
*127 FILLER_0_11_24
*128 FILLER_0_11_32
*129 FILLER_0_11_54
*130 FILLER_0_11_57
*131 FILLER_0_11_69
*132 FILLER_0_11_77
*133 FILLER_0_12_15
*134 FILLER_0_12_27
*135 FILLER_0_12_29
*136 FILLER_0_12_3
*137 FILLER_0_12_37
*138 FILLER_0_12_50
*139 FILLER_0_12_57
*140 FILLER_0_12_69
*141 FILLER_0_12_77
*142 FILLER_0_1_44
*143 FILLER_0_1_55
*144 FILLER_0_1_57
*145 FILLER_0_2_13
*146 FILLER_0_2_21
*147 FILLER_0_2_27
*148 FILLER_0_2_29
*149 FILLER_0_2_7
*150 FILLER_0_3_10
*151 FILLER_0_3_16
*152 FILLER_0_3_55
*153 FILLER_0_3_66
*154 FILLER_0_4_18
*155 FILLER_0_4_24
*156 FILLER_0_4_3
*157 FILLER_0_4_56
*158 FILLER_0_5_12
*159 FILLER_0_5_17
*160 FILLER_0_5_21
*161 FILLER_0_5_31
*162 FILLER_0_5_37
*163 FILLER_0_5_55
*164 FILLER_0_6_20
*165 FILLER_0_6_29
*166 FILLER_0_6_77
*167 FILLER_0_7_35
*168 FILLER_0_7_62
*169 FILLER_0_7_68
*170 FILLER_0_8_15
*171 FILLER_0_8_27
*172 FILLER_0_8_3
*173 FILLER_0_9_23
*174 FILLER_0_9_29
*175 FILLER_0_9_53
*176 FILLER_0_9_57
*177 PHY_EDGE_ROW_0_Left_13
*178 PHY_EDGE_ROW_0_Right_0
*179 PHY_EDGE_ROW_10_Left_23
*180 PHY_EDGE_ROW_10_Right_10
*181 PHY_EDGE_ROW_11_Left_24
*182 PHY_EDGE_ROW_11_Right_11
*183 PHY_EDGE_ROW_12_Left_25
*184 PHY_EDGE_ROW_12_Right_12
*185 PHY_EDGE_ROW_1_Left_14
*186 PHY_EDGE_ROW_1_Right_1
*187 PHY_EDGE_ROW_2_Left_15
*188 PHY_EDGE_ROW_2_Right_2
*189 PHY_EDGE_ROW_3_Left_16
*190 PHY_EDGE_ROW_3_Right_3
*191 PHY_EDGE_ROW_4_Left_17
*192 PHY_EDGE_ROW_4_Right_4
*193 PHY_EDGE_ROW_5_Left_18
*194 PHY_EDGE_ROW_5_Right_5
*195 PHY_EDGE_ROW_6_Left_19
*196 PHY_EDGE_ROW_6_Right_6
*197 PHY_EDGE_ROW_7_Left_20
*198 PHY_EDGE_ROW_7_Right_7
*199 PHY_EDGE_ROW_8_Left_21
*200 PHY_EDGE_ROW_8_Right_8
*201 PHY_EDGE_ROW_9_Left_22
*202 PHY_EDGE_ROW_9_Right_9
*203 TAP_TAPCELL_ROW_0_26
*204 TAP_TAPCELL_ROW_0_27
*205 TAP_TAPCELL_ROW_10_37
*206 TAP_TAPCELL_ROW_11_38
*207 TAP_TAPCELL_ROW_12_39
*208 TAP_TAPCELL_ROW_12_40
*209 TAP_TAPCELL_ROW_1_28
*210 TAP_TAPCELL_ROW_2_29
*211 TAP_TAPCELL_ROW_3_30
*212 TAP_TAPCELL_ROW_4_31
*213 TAP_TAPCELL_ROW_5_32
*214 TAP_TAPCELL_ROW_6_33
*215 TAP_TAPCELL_ROW_7_34
*216 TAP_TAPCELL_ROW_8_35
*217 TAP_TAPCELL_ROW_9_36
*218 _054_
*219 _055_
*220 _056_
*221 _057_
*222 _058_
*223 _059_
*224 _060_
*225 _061_
*226 _062_
*227 _063_
*228 _064_
*229 _065_
*230 _066_
*231 _067_
*232 _068_
*233 _069_
*234 _070_
*235 _071_
*236 _072_
*237 _073_
*238 _074_
*239 _075_
*240 _076_
*241 _077_
*242 _078_
*243 _079_
*244 _080_
*245 _081_
*246 _082_
*247 _083_
*248 _084_
*249 _085_
*250 _086_
*251 _087_
*252 _088_
*253 _089_
*254 _090_
*255 _091_
*256 _092_
*257 _093_
*258 _094_
*259 _095_
*260 _096_
*261 _097_
*262 _098_
*263 _099_
*264 _100_
*265 _101_
*266 _102_
*267 _103_
*268 _104_
*269 _105_
*270 _106_
*271 _107_
*272 _108_
*273 _109_
*274 _110_
*275 _111_
*276 _112_
*277 _113_
*278 _114_
*279 _115_
*280 clkbuf_0_clk
*281 clkbuf_1_0__f_clk
*282 clkbuf_1_1__f_clk
*283 clkload0
*284 clone11
*285 fanout21
*286 hold13
*287 hold14
*288 input1
*289 input10
*290 input11
*291 input12
*292 input2
*293 input3
*294 input4
*295 input5
*296 input6
*297 input7
*298 input8
*299 input9
*300 output13
*301 output14
*302 output15
*303 output16
*304 output17
*305 output18
*306 output19
*307 output20
*308 rebuffer1
*309 rebuffer10
*310 rebuffer2
*311 rebuffer3
*312 rebuffer4
*313 rebuffer5
*314 rebuffer6
*315 rebuffer7
*316 rebuffer8
*317 rebuffer9

*PORTS
clk I
count[0] O
count[1] O
count[2] O
count[3] O
count[4] O
count[5] O
count[6] O
count[7] O
data[0] I
data[1] I
data[2] I
data[3] I
data[4] I
data[5] I
data[6] I
data[7] I
enable I
preload I
resetn I
up_down I

*D_NET *3 0.00532241
*CONN
*P clk I
*I *280:A I *D sky130_fd_sc_hd__clkbuf_16
*CAP
1 clk 0.00218735
2 *280:A 0
3 *3:13 0.00218735
4 *3:13 count[2] 3.25681e-05
5 *3:13 count[3] 0
6 *3:13 *310:A 9.91024e-05
7 *3:13 *315:A 0.000181905
8 *3:13 *21:13 3.49463e-05
9 *3:13 *43:14 0
10 *3:13 *54:8 0.000366759
11 *3:13 *56:10 0.000133316
12 *3:13 *96:10 9.91024e-05
*RES
1 clk *3:13 35.663 
2 *3:13 *280:A 23 
*END

*D_NET *4 0.000965933
*CONN
*P count[0] O
*I *300:X O *D sky130_fd_sc_hd__buf_2
*CAP
1 count[0] 0.000434931
2 *300:X 0.000434931
3 count[0] *286:A 9.60698e-05
4 count[0] *300:A 0
*RES
1 *300:X count[0] 48.1267 
*END

*D_NET *5 0.00248946
*CONN
*P count[1] O
*I *301:X O *D sky130_fd_sc_hd__buf_2
*CAP
1 count[1] 0.000339921
2 *301:X 0.000472504
3 *5:12 0.000812425
4 count[1] *13:13 0.000326136
5 count[1] *35:53 0
6 *5:12 *230:A2 8.06804e-06
7 *5:12 *35:45 9.01041e-05
8 *5:12 *35:53 1.12487e-05
9 *5:12 *40:10 0.000268868
10 *5:12 *81:8 0
11 *5:12 *82:26 0.000160191
12 *5:12 *100:10 0
*RES
1 *301:X *5:12 47.4043 
2 *5:12 count[1] 38.2029 
*END

*D_NET *6 0.000708534
*CONN
*P count[2] O
*I *302:X O *D sky130_fd_sc_hd__buf_2
*CAP
1 count[2] 8.21148e-05
2 *302:X 0.000255868
3 *6:12 0.000337983
4 *6:12 *87:21 0
5 *3:13 count[2] 3.25681e-05
*RES
1 *302:X *6:12 49.6768 
2 *6:12 count[2] 0.328533 
*END

*D_NET *7 0.000872615
*CONN
*P count[3] O
*I *303:X O *D sky130_fd_sc_hd__buf_2
*CAP
1 count[3] 0.000326578
2 *303:X 0.000326578
3 count[3] *237:A 7.76035e-05
4 count[3] *15:15 5.11907e-05
5 count[3] *21:13 3.25681e-05
6 count[3] *84:12 0
7 count[3] *88:35 5.80963e-05
8 *3:13 count[3] 0
*RES
1 *303:X count[3] 49.9819 
*END

*D_NET *8 0.000877009
*CONN
*P count[4] O
*I *304:X O *D sky130_fd_sc_hd__buf_2
*CAP
1 count[4] 0.0003437
2 *304:X 0.0003437
3 count[4] count[5] 0
4 count[4] *221:B 6.07611e-06
5 count[4] *296:A 7.1481e-05
6 count[4] *20:13 0.000102196
7 count[4] *35:37 0
8 count[4] *82:77 9.85586e-06
*RES
1 *304:X count[4] 47.5083 
*END

*D_NET *9 0.000557597
*CONN
*P count[5] O
*I *305:X O *D sky130_fd_sc_hd__buf_2
*CAP
1 count[5] 0.000226263
2 *305:X 0.000226263
3 count[5] *296:A 6.91091e-05
4 count[5] *305:A 3.59619e-05
5 count[4] count[5] 0
*RES
1 *305:X count[5] 47.7832 
*END

*D_NET *10 0.00110544
*CONN
*P count[6] O
*I *306:X O *D sky130_fd_sc_hd__clkbuf_4
*CAP
1 count[6] 0.000552274
2 *306:X 0.000552274
3 count[6] *18:13 0
4 count[6] *68:10 8.91468e-07
*RES
1 *306:X count[6] 49.4964 
*END

*D_NET *11 0.00063227
*CONN
*P count[7] O
*I *307:X O *D sky130_fd_sc_hd__buf_2
*CAP
1 count[7] 0.000277275
2 *307:X 0.000277275
3 count[7] *268:A 0
4 count[7] *19:17 2.79122e-05
5 count[7] *23:13 0
6 count[7] *93:23 4.9808e-05
*RES
1 *307:X count[7] 47.5169 
*END

*D_NET *12 0.00333474
*CONN
*P data[0] I
*I *288:A I *D sky130_fd_sc_hd__clkbuf_1
*CAP
1 data[0] 0.00108249
2 *288:A 0
3 *12:13 0.00108249
4 *12:13 *13:13 0.000139931
5 *12:13 *81:8 3.81966e-05
6 *12:13 *81:16 0.000914981
7 *12:13 *82:20 4.95081e-05
8 *12:13 *82:37 2.71291e-05
*RES
1 data[0] *12:13 49.9479 
2 *12:13 *288:A 38 
*END

*D_NET *13 0.00183787
*CONN
*P data[1] I
*I *292:A I *D sky130_fd_sc_hd__clkbuf_1
*CAP
1 data[1] 0.000611923
2 *292:A 6.57735e-05
3 *13:13 0.000677697
4 *292:A *92:8 6.17437e-06
5 *13:13 *35:53 0
6 *13:13 *81:8 1.02387e-05
7 count[1] *13:13 0.000326136
8 *12:13 *13:13 0.000139931
*RES
1 data[1] *13:13 43.7543 
2 *13:13 *292:A 39.0979 
*END

*D_NET *14 0.00123216
*CONN
*P data[2] I
*I *293:A I *D sky130_fd_sc_hd__clkbuf_1
*CAP
1 data[2] 0.000585621
2 *293:A 0.000585621
3 *293:A *235:A2 6.09174e-05
4 *293:A *35:59 0
5 *293:A *82:14 0
6 *293:A *82:20 0
*RES
1 data[2] *293:A 49.1236 
*END

*D_NET *15 0.00171801
*CONN
*P data[3] I
*I *294:A I *D sky130_fd_sc_hd__clkbuf_1
*CAP
1 data[3] 0.00068389
2 *294:A 0
3 *15:15 0.00068389
4 *15:15 *270:A1 0.000139352
5 *15:15 *270:A2 4.5051e-05
6 *15:15 *270:B2 5.70419e-05
7 *15:15 *23:13 5.32136e-05
8 *15:15 *35:77 0
9 *15:15 *77:10 4.38068e-06
10 *15:15 *84:12 0
11 *15:15 *88:35 0
12 count[3] *15:15 5.11907e-05
*RES
1 data[3] *15:15 32.6456 
2 *15:15 *294:A 23 
*END

*D_NET *16 0.0012189
*CONN
*P data[4] I
*I *295:A I *D sky130_fd_sc_hd__clkbuf_1
*CAP
1 data[4] 0.000397966
2 *295:A 0
3 *16:11 0.000397966
4 *16:11 *286:A 0
5 *16:11 *20:13 7.53639e-05
6 *16:11 *35:123 0.000192206
7 *16:11 *36:81 0
8 *16:11 *82:62 0
9 *16:11 *89:8 0.000155402
*RES
1 data[4] *16:11 28.3047 
2 *16:11 *295:A 23 
*END

*D_NET *17 0.000447473
*CONN
*P data[5] I
*I *296:A I *D sky130_fd_sc_hd__clkbuf_1
*CAP
1 data[5] 0.00014541
2 *296:A 0.00014541
3 *296:A *90:12 1.60633e-05
4 count[4] *296:A 7.1481e-05
5 count[5] *296:A 6.91091e-05
*RES
1 data[5] *296:A 47.3452 
*END

*D_NET *18 0.00129486
*CONN
*P data[6] I
*I *297:A I *D sky130_fd_sc_hd__clkbuf_1
*CAP
1 data[6] 0.000619618
2 *297:A 0
3 *18:13 0.000619618
4 *18:13 *66:23 5.56279e-05
5 count[6] *18:13 0
*RES
1 data[6] *18:13 28.0293 
2 *18:13 *297:A 23 
*END

*D_NET *19 0.000702704
*CONN
*P data[7] I
*I *298:A I *D sky130_fd_sc_hd__clkbuf_1
*CAP
1 data[7] 0.000326773
2 *298:A 0
3 *19:17 0.000326773
4 *19:17 *23:13 2.12457e-05
5 *19:17 *93:23 0
6 count[7] *19:17 2.79122e-05
*RES
1 data[7] *19:17 27.5105 
2 *19:17 *298:A 23 
*END

*D_NET *20 0.0026454
*CONN
*P enable I
*I *299:A I *D sky130_fd_sc_hd__clkbuf_1
*CAP
1 enable 0.000685122
2 *299:A 0
3 *20:13 0.000685122
4 *20:13 *224:A2 1.01436e-05
5 *20:13 *228:B1 5.3304e-05
6 *20:13 *35:37 6.02277e-06
7 *20:13 *36:81 2.56004e-05
8 *20:13 *58:10 0.0001264
9 *20:13 *59:10 2.95125e-05
10 *20:13 *82:54 0.000352538
11 *20:13 *114:8 0.000494072
12 count[4] *20:13 0.000102196
13 *16:11 *20:13 7.53639e-05
*RES
1 enable *20:13 32.4302 
2 *20:13 *299:A 23 
*END

*D_NET *21 0.000849163
*CONN
*P preload I
*I *289:A I *D sky130_fd_sc_hd__buf_2
*CAP
1 preload 0.000390824
2 *289:A 0
3 *21:13 0.000390824
4 *21:13 *94:10 0
5 count[3] *21:13 3.25681e-05
6 *3:13 *21:13 3.49463e-05
*RES
1 preload *21:13 29.1389 
2 *21:13 *289:A 23 
*END

*D_NET *22 0.000741648
*CONN
*P resetn I
*I *286:A I *D sky130_fd_sc_hd__dlygate4sd3_1
*CAP
1 resetn 0.000319751
2 *286:A 0.000319751
3 *286:A *224:A2 6.07611e-06
4 *286:A *82:54 0
5 count[0] *286:A 9.60698e-05
6 *16:11 *286:A 0
*RES
1 resetn *286:A 47.5083 
*END

*D_NET *23 0.00155603
*CONN
*P up_down I
*I *291:A I *D sky130_fd_sc_hd__clkbuf_2
*CAP
1 up_down 0.000435494
2 *291:A 0
3 *23:13 0.000435494
4 *23:13 *270:B2 0.00012758
5 *23:13 *84:12 0
6 *23:13 *93:23 0.000255292
7 *23:13 *113:10 0.000227714
8 count[7] *23:13 0
9 *15:15 *23:13 5.32136e-05
10 *19:17 *23:13 2.12457e-05
*RES
1 up_down *23:13 30.3169 
2 *23:13 *291:A 23 
*END

*D_NET *24 0.00100157
*CONN
*I *272:D I *D sky130_fd_sc_hd__dfrtp_1
*I *224:Y O *D sky130_fd_sc_hd__a21oi_1
*CAP
1 *272:D 0
2 *224:Y 0.000250073
3 *24:10 0.000250073
4 *24:10 *224:B1 4.57742e-05
5 *24:10 *228:A1 0.000185095
6 *24:10 *276:CLK 0.000122627
7 *24:10 *32:29 3.70094e-05
8 *24:10 *79:12 0.000110922
*RES
1 *224:Y *24:10 43.4893 
2 *24:10 *272:D 38 
*END

*D_NET *25 0.000462071
*CONN
*I *273:D I *D sky130_fd_sc_hd__dfrtp_1
*I *230:X O *D sky130_fd_sc_hd__a21o_1
*CAP
1 *273:D 0
2 *230:X 0.000178492
3 *25:10 0.000178492
4 *25:10 *40:16 4.2812e-06
5 *25:10 *92:8 0.000100805
*RES
1 *230:X *25:10 41.0036 
2 *25:10 *273:D 38 
*END

*D_NET *26 0.000270484
*CONN
*I *274:D I *D sky130_fd_sc_hd__dfrtp_2
*I *236:X O *D sky130_fd_sc_hd__a31o_1
*CAP
1 *274:D 0
2 *236:X 6.35924e-05
3 *26:8 6.35924e-05
4 *26:8 *274:CLK 1.19692e-05
5 *26:8 *283:A 2.26489e-05
6 *26:8 *47:10 0.000108681
*RES
1 *236:X *26:8 39.5536 
2 *26:8 *274:D 38 
*END

*D_NET *27 0.000328822
*CONN
*I *275:D I *D sky130_fd_sc_hd__dfrtp_1
*I *242:X O *D sky130_fd_sc_hd__a221o_1
*CAP
1 *275:D 0.000118349
2 *242:X 0.000118349
3 *275:D *242:A2 1.32314e-05
4 *275:D *242:B2 0
5 *275:D *80:33 7.88926e-05
*RES
1 *242:X *275:D 48.5479 
*END

*D_NET *28 0.000519789
*CONN
*I *276:D I *D sky130_fd_sc_hd__dfrtp_1
*I *251:X O *D sky130_fd_sc_hd__a31o_1
*CAP
1 *276:D 0
2 *251:X 0.000207973
3 *28:10 0.000207973
4 *28:10 *83:40 5.26101e-05
5 *28:10 *89:19 4.75206e-05
6 *28:10 *89:25 3.7122e-06
7 *28:10 *106:43 0
*RES
1 *251:X *28:10 41.8321 
2 *28:10 *276:D 38 
*END

*D_NET *29 0.000214471
*CONN
*I *277:D I *D sky130_fd_sc_hd__dfrtp_1
*I *257:X O *D sky130_fd_sc_hd__a31o_1
*CAP
1 *277:D 0
2 *257:X 0.000107236
3 *29:8 0.000107236
4 *29:8 *35:20 0
5 *29:8 *36:27 0
*RES
1 *257:X *29:8 39.9057 
2 *29:8 *277:D 38 
*END

*D_NET *30 0.00135102
*CONN
*I *278:D I *D sky130_fd_sc_hd__dfrtp_1
*I *266:X O *D sky130_fd_sc_hd__a31o_1
*CAP
1 *278:D 0.000272384
2 *266:X 0.000197012
3 *30:8 0.000469396
4 *278:D *83:52 0.000197847
5 *278:D *83:56 1.14005e-06
6 *30:8 *68:14 0.000138727
7 *30:8 *70:8 7.45175e-05
*RES
1 *266:X *30:8 42.0186 
2 *30:8 *278:D 42.0238 
*END

*D_NET *31 0.00098754
*CONN
*I *279:D I *D sky130_fd_sc_hd__dfrtp_1
*I *271:X O *D sky130_fd_sc_hd__a21o_1
*CAP
1 *279:D 0.000316754
2 *271:X 4.68088e-05
3 *31:8 0.000363563
4 *279:D *279:RESET_B 0.00017621
5 *31:8 *77:10 4.08641e-05
6 *31:8 *84:12 4.334e-05
*RES
1 *271:X *31:8 39.2014 
2 *31:8 *279:D 42.4536 
*END

*D_NET *32 0.00511297
*CONN
*I *228:A1 I *D sky130_fd_sc_hd__o21a_1
*I *227:A I *D sky130_fd_sc_hd__nand2_1
*I *223:B2 I *D sky130_fd_sc_hd__a22o_1
*I *231:A2 I *D sky130_fd_sc_hd__o21a_1
*I *218:Y O *D sky130_fd_sc_hd__inv_2
*CAP
1 *228:A1 0.000119427
2 *227:A 0.000115792
3 *223:B2 0
4 *231:A2 0
5 *218:Y 0.000103548
6 *32:39 0.000203246
7 *32:29 0.000512102
8 *32:25 0.00073211
9 *32:16 0.000225635
10 *32:6 0.000748802
11 *227:A *223:A2 5.52563e-05
12 *227:A *33:12 5.50106e-05
13 *227:A *40:10 7.14286e-05
14 *228:A1 *276:CLK 7.54566e-05
15 *228:A1 *37:8 0.000114083
16 *228:A1 *83:24 0.000122304
17 *228:A1 *102:10 1.14452e-05
18 *32:6 *79:14 0.000141052
19 *32:16 *231:A1 2.47128e-05
20 *32:16 *41:8 0
21 *32:16 *78:12 0.000139346
22 *32:16 *99:10 0.000127759
23 *32:25 *79:12 9.58714e-05
24 *32:25 *79:14 0.000388668
25 *32:25 *85:31 8.84817e-06
26 *32:29 *33:12 3.0647e-05
27 *32:29 *35:43 6.61054e-05
28 *32:29 *37:8 0.000222104
29 *32:29 *82:37 1.83667e-05
30 *32:29 *82:54 4.43614e-05
31 *32:29 *104:10 0
32 *32:39 *223:A2 1.69977e-05
33 *32:39 *35:43 3.47781e-05
34 *32:39 *35:45 0.000108315
35 *32:39 *40:10 8.66232e-05
36 *32:39 *41:8 5.94125e-05
37 *32:39 *82:37 1.12487e-05
38 *24:10 *228:A1 0.000185095
39 *24:10 *32:29 3.70094e-05
*RES
1 *218:Y *32:6 24.5743 
2 *32:6 *32:16 34.5779 
3 *32:16 *231:A2 23 
4 *32:6 *32:25 21.3386 
5 *32:25 *32:29 19.7229 
6 *32:29 *32:39 33.5214 
7 *32:39 *223:B2 23 
8 *32:29 *227:A 26.5007 
9 *32:25 *228:A1 42.7229 
*END

*D_NET *33 0.000869755
*CONN
*I *223:A2 I *D sky130_fd_sc_hd__a22o_1
*I *219:Y O *D sky130_fd_sc_hd__inv_2
*CAP
1 *223:A2 3.65872e-05
2 *219:Y 0.000258414
3 *33:12 0.000295001
4 *223:A2 *40:10 7.6213e-05
5 *33:12 *81:16 1.34354e-05
6 *33:12 *82:54 2.31797e-05
7 *33:12 *83:14 4.38068e-06
8 *33:12 *104:10 4.6318e-06
9 *227:A *223:A2 5.52563e-05
10 *227:A *33:12 5.50106e-05
11 *32:29 *33:12 3.0647e-05
12 *32:39 *223:A2 1.69977e-05
*RES
1 *219:Y *33:12 41.5214 
2 *33:12 *223:A2 39.3154 
*END

*D_NET *34 0.000324733
*CONN
*I *239:A2 I *D sky130_fd_sc_hd__o21ai_1
*I *220:Y O *D sky130_fd_sc_hd__inv_2
*CAP
1 *239:A2 0.000115005
2 *220:Y 0.000115005
3 *239:A2 *82:14 9.47227e-05
*RES
1 *220:Y *239:A2 48.0507 
*END

*D_NET *35 0.0172428
*CONN
*I *250:B1 I *D sky130_fd_sc_hd__a22o_1
*I *256:B1 I *D sky130_fd_sc_hd__a22o_1
*I *223:B1 I *D sky130_fd_sc_hd__a22o_1
*I *229:B1 I *D sky130_fd_sc_hd__a22o_1
*I *235:B1 I *D sky130_fd_sc_hd__a22o_1
*I *242:B1 I *D sky130_fd_sc_hd__a221o_1
*I *270:B1 I *D sky130_fd_sc_hd__a22o_1
*I *265:B1 I *D sky130_fd_sc_hd__a22o_1
*I *221:Y O *D sky130_fd_sc_hd__nor2_2
*CAP
1 *250:B1 0
2 *256:B1 0
3 *223:B1 0
4 *229:B1 0
5 *235:B1 0
6 *242:B1 2.34823e-05
7 *270:B1 0
8 *265:B1 0
9 *221:Y 0
10 *35:123 0.000350424
11 *35:110 8.08477e-05
12 *35:77 0.000214018
13 *35:69 0.000336744
14 *35:65 0.00107937
15 *35:59 0.00108835
16 *35:53 0.000761296
17 *35:45 0.000777535
18 *35:43 0.000423739
19 *35:37 0.000861295
20 *35:20 0.000657455
21 *35:10 0.00135979
22 *35:8 0.000304349
23 *35:4 0.000433608
24 *242:B1 *80:33 0
25 *35:8 *221:B 4.5051e-05
26 *35:10 *221:B 6.9805e-05
27 *35:10 *89:66 0.000129522
28 *35:20 *248:B 2.30292e-05
29 *35:20 *258:A_N 0.000122958
30 *35:20 *265:B2 5.3304e-05
31 *35:20 *36:27 9.30054e-05
32 *35:20 *63:10 0.000355023
33 *35:20 *82:103 0.000223692
34 *35:20 *83:40 0
35 *35:20 *89:66 0.000221992
36 *35:20 *105:10 7.56417e-05
37 *35:37 *221:B 9.21347e-06
38 *35:37 *228:B1 0.000243985
39 *35:37 *36:10 0.000327903
40 *35:37 *58:10 0.000318664
41 *35:37 *59:10 0.000141879
42 *35:37 *82:54 0.00010404
43 *35:37 *82:77 0
44 *35:37 *83:24 0.000111852
45 *35:37 *83:40 0.000364771
46 *35:43 *276:CLK 0.000349646
47 *35:43 *41:8 0.000288571
48 *35:43 *78:12 0
49 *35:43 *79:12 0.000110922
50 *35:43 *82:37 1.01436e-05
51 *35:43 *82:54 7.93144e-05
52 *35:43 *106:43 0
53 *35:45 *230:A2 0.000401106
54 *35:45 *40:10 0.000102244
55 *35:53 *82:20 0.00126618
56 *35:53 *82:26 0.000160191
57 *35:53 *82:37 4.17736e-05
58 *35:59 *82:20 0.000169674
59 *35:65 *235:B2 0.00014196
60 *35:65 *236:A1 1.27508e-05
61 *35:65 *236:A3 0.000159508
62 *35:65 *239:B1 7.80354e-05
63 *35:65 *241:A2 2.95125e-05
64 *35:65 *270:A1 3.70094e-05
65 *35:65 *36:42 7.38691e-05
66 *35:65 *48:12 0.000140958
67 *35:65 *50:10 7.80354e-05
68 *35:65 *82:14 0
69 *35:65 *82:132 0.000485315
70 *35:65 *87:21 0
71 *35:65 *87:32 0
72 *35:65 *94:10 0
73 *35:65 *106:12 0.000194318
74 *35:65 *109:8 3.31127e-05
75 *35:77 *242:B2 2.19106e-05
76 *35:77 *84:12 5.21127e-05
77 *35:110 *36:10 0
78 *35:110 *82:86 0.000138727
79 *35:123 *221:B 1.40958e-05
80 *35:123 *82:62 6.72184e-06
81 *35:123 *82:77 0.000132269
82 *35:123 *82:86 3.20914e-05
83 *35:123 *110:12 0.000104308
84 count[1] *35:53 0
85 count[4] *35:37 0
86 *293:A *35:59 0
87 *5:12 *35:45 9.01041e-05
88 *5:12 *35:53 1.12487e-05
89 *13:13 *35:53 0
90 *15:15 *35:77 0
91 *16:11 *35:123 0.000192206
92 *20:13 *35:37 6.02277e-06
93 *29:8 *35:20 0
94 *32:29 *35:43 6.61054e-05
95 *32:39 *35:43 3.47781e-05
96 *32:39 *35:45 0.000108315
*RES
1 *221:Y *35:4 23 
2 *35:4 *35:8 1.595 
3 *35:8 *35:10 3.00357 
4 *35:10 *35:20 44.9764 
5 *35:20 *265:B1 23 
6 *35:10 *35:37 44.8314 
7 *35:37 *35:43 40.005 
8 *35:43 *35:45 5.38571 
9 *35:45 *35:53 47.5243 
10 *35:53 *35:59 32.61 
11 *35:59 *35:65 38.8007 
12 *35:65 *35:69 16.0979 
13 *35:69 *35:77 33.1279 
14 *35:77 *270:B1 23 
15 *35:69 *242:B1 23.4971 
16 *35:59 *235:B1 23 
17 *35:45 *229:B1 23 
18 *35:43 *223:B1 23 
19 *35:8 *35:110 31.9057 
20 *35:110 *256:B1 23 
21 *35:4 *35:123 37.105 
22 *35:123 *250:B1 23 
*END

*D_NET *36 0.012746
*CONN
*I *251:A1 I *D sky130_fd_sc_hd__a31o_1
*I *228:B1 I *D sky130_fd_sc_hd__o21a_1
*I *224:A2 I *D sky130_fd_sc_hd__a21oi_1
*I *271:A1 I *D sky130_fd_sc_hd__a21o_1
*I *240:B1 I *D sky130_fd_sc_hd__o21ai_1
*I *236:A1 I *D sky130_fd_sc_hd__a31o_1
*I *266:A1 I *D sky130_fd_sc_hd__a31o_1
*I *257:A1 I *D sky130_fd_sc_hd__a31o_1
*I *222:X O *D sky130_fd_sc_hd__and2b_2
*CAP
1 *251:A1 4.63141e-05
2 *228:B1 0.000307577
3 *224:A2 0.000117464
4 *271:A1 0
5 *240:B1 1.80182e-05
6 *236:A1 0.000341407
7 *266:A1 0
8 *257:A1 0
9 *222:X 0
10 *36:81 0.000682082
11 *36:75 0.000485554
12 *36:42 0.000968892
13 *36:38 0.00134241
14 *36:27 0.00147938
15 *36:10 0.00108857
16 *36:4 0.000524326
17 *224:A2 *287:A 0
18 *224:A2 *82:54 0.00012477
19 *224:A2 *108:8 0.000141888
20 *228:B1 *317:A 0.000109901
21 *228:B1 *104:10 1.39317e-05
22 *236:A1 *236:A3 0.000256899
23 *236:A1 *236:B1 7.53384e-06
24 *236:A1 *239:B1 0.000166522
25 *236:A1 *243:A1 0.000100543
26 *236:A1 *50:10 0.000138727
27 *236:A1 *82:14 5.33703e-05
28 *236:A1 *87:45 8.8645e-05
29 *240:B1 *84:21 2.93845e-05
30 *240:B1 *106:12 5.50106e-05
31 *251:A1 *251:B1 5.3304e-05
32 *251:A1 *82:58 1.21972e-05
33 *251:A1 *89:19 9.41704e-05
34 *36:10 *63:10 0.000141879
35 *36:10 *82:86 0
36 *36:10 *83:40 0.000330049
37 *36:27 *265:B2 5.3304e-05
38 *36:27 *266:A2 0.000145112
39 *36:27 *266:B1 8.94046e-05
40 *36:27 *277:RESET_B 0.000225275
41 *36:27 *305:A 0
42 *36:27 *82:86 0
43 *36:27 *82:103 0.000171111
44 *36:27 *83:40 2.24973e-05
45 *36:38 *266:A2 3.59255e-05
46 *36:38 *266:A3 0.000144501
47 *36:38 *266:B1 1.12349e-05
48 *36:38 *308:A 0.000146822
49 *36:38 *70:12 0.000144494
50 *36:42 *241:A2 0.000191157
51 *36:42 *243:A1 4.6318e-06
52 *36:42 *279:RESET_B 0.000117563
53 *36:42 *50:10 2.77955e-05
54 *36:42 *51:8 0.000113153
55 *36:42 *76:10 1.14452e-05
56 *36:42 *77:10 0.000177914
57 *36:42 *80:33 0
58 *36:42 *84:12 0
59 *36:42 *109:8 0.000141888
60 *36:75 *82:62 5.93829e-05
61 *36:75 *114:8 0.000122777
62 *36:81 *82:62 4.18957e-05
63 *36:81 *89:8 0
64 *36:81 *114:8 0.000379403
65 *286:A *224:A2 6.07611e-06
66 *16:11 *36:81 0
67 *20:13 *224:A2 1.01436e-05
68 *20:13 *228:B1 5.3304e-05
69 *20:13 *36:81 2.56004e-05
70 *29:8 *36:27 0
71 *35:20 *36:27 9.30054e-05
72 *35:37 *228:B1 0.000243985
73 *35:37 *36:10 0.000327903
74 *35:65 *236:A1 1.27508e-05
75 *35:65 *36:42 7.38691e-05
76 *35:110 *36:10 0
*RES
1 *222:X *36:4 23 
2 *36:4 *36:10 23.0579 
3 *36:10 *257:A1 38 
4 *36:10 *36:27 31.9236 
5 *36:27 *266:A1 23 
6 *36:27 *36:38 14.9557 
7 *36:38 *36:42 29.2307 
8 *36:42 *236:A1 47.0107 
9 *36:42 *240:B1 38.6214 
10 *36:38 *271:A1 23 
11 *36:4 *36:75 18.0036 
12 *36:75 *36:81 6.54571 
13 *36:81 *224:A2 41.3143 
14 *36:81 *228:B1 44.0486 
15 *36:75 *251:A1 39.0979 
*END

*D_NET *37 0.00113195
*CONN
*I *224:B1 I *D sky130_fd_sc_hd__a21oi_1
*I *223:X O *D sky130_fd_sc_hd__a22o_1
*CAP
1 *224:B1 0.000105244
2 *223:X 0.000106265
3 *37:8 0.000211509
4 *37:8 *83:14 0.00019654
5 *37:8 *83:24 0.000130433
6 *228:A1 *37:8 0.000114083
7 *24:10 *224:B1 4.57742e-05
8 *32:29 *37:8 0.000222104
*RES
1 *223:X *37:8 42.3707 
2 *37:8 *224:B1 39.5743 
*END

*D_NET *38 0.0015719
*CONN
*I *231:B1 I *D sky130_fd_sc_hd__o21a_1
*I *225:Y O *D sky130_fd_sc_hd__nand2b_1
*CAP
1 *231:B1 0
2 *225:Y 0.000455692
3 *38:10 0.000455692
4 *38:10 *86:23 8.32764e-05
5 *38:10 *94:25 0.000450164
6 *38:10 *94:42 0.000127076
*RES
1 *225:Y *38:10 46.9486 
2 *38:10 *231:B1 38 
*END

*D_NET *39 0.00140634
*CONN
*I *316:A I *D sky130_fd_sc_hd__dlygate4sd1_1
*I *231:A1 I *D sky130_fd_sc_hd__o21a_1
*I *226:X O *D sky130_fd_sc_hd__xor2_2
*CAP
1 *316:A 0.00012402
2 *231:A1 0.000172501
3 *226:X 4.49845e-05
4 *39:8 0.000341505
5 *231:A1 *245:B 4.7869e-05
6 *231:A1 *78:12 5.67058e-05
7 *231:A1 *94:42 6.48142e-05
8 *231:A1 *99:10 0.00013388
9 *316:A *245:B 7.90671e-05
10 *316:A *55:20 9.41704e-05
11 *316:A *94:42 0.000185104
12 *316:A *98:10 3.70094e-05
13 *32:16 *231:A1 2.47128e-05
*RES
1 *226:X *39:8 38.6214 
2 *39:8 *231:A1 42.4121 
3 *39:8 *316:A 41.7079 
*END

*D_NET *40 0.00241113
*CONN
*I *230:A1 I *D sky130_fd_sc_hd__a21o_1
*I *227:Y O *D sky130_fd_sc_hd__nand2_1
*CAP
1 *230:A1 0
2 *227:Y 0.000621366
3 *40:16 7.18951e-05
4 *40:10 0.000693261
5 *40:10 *230:A2 2.03764e-06
6 *40:10 *82:54 0.000226306
7 *40:10 *92:8 0.000186606
8 *223:A2 *40:10 7.6213e-05
9 *227:A *40:10 7.14286e-05
10 *5:12 *40:10 0.000268868
11 *25:10 *40:16 4.2812e-06
12 *32:39 *40:10 8.66232e-05
13 *35:45 *40:10 0.000102244
*RES
1 *227:Y *40:10 35.0971 
2 *40:10 *40:16 31.2014 
3 *40:16 *230:A1 23 
*END

*D_NET *41 0.00268393
*CONN
*I *230:A2 I *D sky130_fd_sc_hd__a21o_1
*I *228:X O *D sky130_fd_sc_hd__o21a_1
*CAP
1 *230:A2 0.000444015
2 *228:X 0.000431739
3 *41:8 0.000875754
4 *230:A2 *230:B1 9.60592e-05
5 *230:A2 *92:8 7.71643e-05
6 *41:8 *78:12 0
7 *41:8 *99:25 0
8 *5:12 *230:A2 8.06804e-06
9 *32:16 *41:8 0
10 *32:39 *41:8 5.94125e-05
11 *35:43 *41:8 0.000288571
12 *35:45 *230:A2 0.000401106
13 *40:10 *230:A2 2.03764e-06
*RES
1 *228:X *41:8 46.5964 
2 *41:8 *230:A2 45.8093 
*END

*D_NET *42 0.000450869
*CONN
*I *230:B1 I *D sky130_fd_sc_hd__a21o_1
*I *229:X O *D sky130_fd_sc_hd__a22o_1
*CAP
1 *230:B1 0.000153544
2 *229:X 0.000153544
3 *230:B1 *92:8 4.77213e-05
4 *230:A2 *230:B1 9.60592e-05
*RES
1 *229:X *230:B1 49.045 
*END

*D_NET *43 0.00343577
*CONN
*I *244:A3 I *D sky130_fd_sc_hd__o31ai_4
*I *233:A I *D sky130_fd_sc_hd__nand2_1
*I *234:A I *D sky130_fd_sc_hd__or2_1
*I *231:X O *D sky130_fd_sc_hd__o21a_1
*CAP
1 *244:A3 0.000172244
2 *233:A 2.12412e-05
3 *234:A 6.32829e-05
4 *231:X 0.000581873
5 *43:20 0.00050162
6 *43:14 0.00117121
7 *233:A *234:B 1.09903e-05
8 *233:A *44:17 5.12055e-06
9 *234:A *44:6 5.70419e-05
10 *234:A *44:17 3.22879e-05
11 *244:A3 *247:B 0.000144501
12 *244:A3 *49:8 5.58975e-06
13 *244:A3 *57:18 8.47328e-05
14 *244:A3 *101:10 0
15 *43:14 *83:78 0
16 *43:14 *86:23 7.77399e-05
17 *43:14 *99:10 9.84794e-05
18 *43:14 *101:10 0
19 *43:20 *283:A 0.000351519
20 *43:20 *44:17 1.03836e-05
21 *43:20 *94:25 4.59139e-05
22 *3:13 *43:14 0
*RES
1 *231:X *43:14 46.1614 
2 *43:14 *43:20 21.3593 
3 *43:20 *234:A 24.5743 
4 *43:20 *233:A 23.4971 
5 *43:14 *244:A3 41.48 
*END

*D_NET *44 0.00274116
*CONN
*I *233:B I *D sky130_fd_sc_hd__nand2_1
*I *244:A2 I *D sky130_fd_sc_hd__o31ai_4
*I *234:B I *D sky130_fd_sc_hd__or2_1
*I *232:X O *D sky130_fd_sc_hd__xor2_1
*CAP
1 *233:B 0
2 *244:A2 0
3 *234:B 1.72574e-05
4 *232:X 0.000134029
5 *44:27 0.000284521
6 *44:17 0.000327441
7 *44:6 0.000194207
8 *44:6 *87:45 0.000353214
9 *44:6 *94:16 0.00052451
10 *44:17 *225:A_N 2.69944e-05
11 *44:17 *283:A 2.93845e-05
12 *44:17 *94:16 0.000139236
13 *44:27 *247:B 0.000151496
14 *44:27 *283:A 3.39102e-05
15 *44:27 *55:20 2.13733e-05
16 *44:27 *57:18 0.000314839
17 *44:27 *82:14 0
18 *44:27 *83:78 7.29233e-05
19 *233:A *234:B 1.09903e-05
20 *233:A *44:17 5.12055e-06
21 *234:A *44:6 5.70419e-05
22 *234:A *44:17 3.22879e-05
23 *43:20 *44:17 1.03836e-05
*RES
1 *232:X *44:6 28.8621 
2 *44:6 *234:B 23.4971 
3 *44:6 *44:17 2.07143 
4 *44:17 *44:27 37.1879 
5 *44:27 *244:A2 23 
6 *44:17 *233:B 23 
*END

*D_NET *45 0.000926793
*CONN
*I *236:A2 I *D sky130_fd_sc_hd__a31o_1
*I *233:Y O *D sky130_fd_sc_hd__nand2_1
*CAP
1 *236:A2 6.69182e-05
2 *233:Y 0.000212882
3 *45:10 0.0002798
4 *236:A2 *236:A3 2.93747e-05
5 *236:A2 *236:B1 1.21972e-05
6 *45:10 *283:A 0
7 *45:10 *82:14 0.000141888
8 *45:10 *94:16 0.000183733
*RES
1 *233:Y *45:10 41.9564 
2 *45:10 *236:A2 39.0979 
*END

*D_NET *46 0.00186071
*CONN
*I *239:B1 I *D sky130_fd_sc_hd__o21ai_1
*I *236:A3 I *D sky130_fd_sc_hd__a31o_1
*I *234:X O *D sky130_fd_sc_hd__or2_1
*CAP
1 *239:B1 6.42732e-05
2 *236:A3 0.000240744
3 *234:X 0.000124192
4 *46:8 0.00042921
5 *236:A3 *236:B1 0.000240439
6 *236:A3 *82:14 0
7 *46:8 *87:45 7.15126e-05
8 *236:A1 *236:A3 0.000256899
9 *236:A1 *239:B1 0.000166522
10 *236:A2 *236:A3 2.93747e-05
11 *35:65 *236:A3 0.000159508
12 *35:65 *239:B1 7.80354e-05
*RES
1 *234:X *46:8 39.5743 
2 *46:8 *236:A3 44.9186 
3 *46:8 *239:B1 40.2579 
*END

*D_NET *47 0.0017563
*CONN
*I *236:B1 I *D sky130_fd_sc_hd__a31o_1
*I *235:X O *D sky130_fd_sc_hd__a22o_1
*CAP
1 *236:B1 0.000274954
2 *235:X 0.000248842
3 *47:10 0.000523795
4 *47:10 *235:A2 4.06849e-05
5 *47:10 *274:CLK 0
6 *47:10 *82:14 0.000299178
7 *236:A1 *236:B1 7.53384e-06
8 *236:A2 *236:B1 1.21972e-05
9 *236:A3 *236:B1 0.000240439
10 *26:8 *47:10 0.000108681
*RES
1 *235:X *47:10 43.1164 
2 *47:10 *236:B1 42.9507 
*END

*D_NET *48 0.00189858
*CONN
*I *238:A I *D sky130_fd_sc_hd__inv_2
*I *241:A1 I *D sky130_fd_sc_hd__a21oi_1
*I *240:A1 I *D sky130_fd_sc_hd__o21ai_1
*I *237:Y O *D sky130_fd_sc_hd__xnor2_2
*CAP
1 *238:A 0.000328044
2 *241:A1 0
3 *240:A1 0
4 *237:Y 0
5 *48:21 0.000457583
6 *48:12 0.000150654
7 *48:4 0.000280193
8 *238:A *241:A2 5.67058e-05
9 *238:A *88:25 0.00024017
10 *48:12 *241:A2 0.000153734
11 *48:12 *50:10 1.14452e-05
12 *48:12 *88:25 1.21972e-05
13 *48:21 *241:A2 6.68919e-05
14 *35:65 *48:12 0.000140958
*RES
1 *237:Y *48:4 23 
2 *48:4 *48:12 33.0036 
3 *48:12 *240:A1 23 
4 *48:4 *48:21 2.07143 
5 *48:21 *241:A1 23 
6 *48:21 *238:A 29.8357 
*END

*D_NET *49 0.000746532
*CONN
*I *244:A1 I *D sky130_fd_sc_hd__o31ai_4
*I *238:Y O *D sky130_fd_sc_hd__inv_2
*CAP
1 *244:A1 0
2 *238:Y 0.000255829
3 *49:8 0.000255829
4 *49:8 *243:A2 4.23817e-05
5 *49:8 *83:78 0
6 *49:8 *84:38 0.000112303
7 *49:8 *101:10 7.45997e-05
8 *244:A3 *49:8 5.58975e-06
*RES
1 *238:Y *49:8 43.075 
2 *49:8 *244:A1 38 
*END

*D_NET *50 0.00152104
*CONN
*I *241:A2 I *D sky130_fd_sc_hd__a21oi_1
*I *240:A2 I *D sky130_fd_sc_hd__o21ai_1
*I *239:Y O *D sky130_fd_sc_hd__o21ai_1
*CAP
1 *241:A2 0.000138575
2 *240:A2 0
3 *239:Y 0.000103438
4 *50:10 0.000242013
5 *241:A2 *88:25 0.0002263
6 *50:10 *82:14 5.67058e-05
7 *236:A1 *50:10 0.000138727
8 *238:A *241:A2 5.67058e-05
9 *35:65 *241:A2 2.95125e-05
10 *35:65 *50:10 7.80354e-05
11 *36:42 *241:A2 0.000191157
12 *36:42 *50:10 2.77955e-05
13 *48:12 *241:A2 0.000153734
14 *48:12 *50:10 1.14452e-05
15 *48:21 *241:A2 6.68919e-05
*RES
1 *239:Y *50:10 40.8793 
2 *50:10 *240:A2 38 
3 *50:10 *241:A2 43.1371 
*END

*D_NET *51 0.000257118
*CONN
*I *241:B1 I *D sky130_fd_sc_hd__a21oi_1